

        *** GPGPU-Sim version 2.1.1b (beta) ***


GPGPU-Sim PTX: __cudaRegisterFunction _Z10testKernelIiEvPT_S1_ : 0x404060
GPGPU-Sim PTX: __cudaRegisterFunction _Z10testKernelIfEvPT_S1_ : 0x404050
GPGPU-Sim PTX: __cudaRegisterShared
GPGPU-Sim PTX: __cudaRegisterShared
GPGPU-Sim PTX: __cudaRegisterShared
GPGPU-Sim PTX: __cudaRegisterShared
GPGPU-Sim PTX: __cudaRegisterShared
GPGPU-Sim PTX: __cudaRegisterShared
GPGPU-Sim PTX: __cudaRegisterShared
GPGPU-Sim PTX: __cudaRegisterShared
GPGPU-Sim PTX: __cudaRegisterShared
GPGPU-Sim PTX: __cudaRegisterShared
GPGPU-Sim PTX: __cudaRegisterShared
GPGPU-Sim PTX: simulation mode 0 (can change with PTX_SIM_MODE_FUNC environment variable:
               1=functional simulation only, 0=detailed performance simulator)
GPGPU-Sim: Configuration options:

-network_mode                           1 # Interconnection network mode
-inter_config_file   icnt_config_quadro_islip.txt # Interconnection network config file
-save_embedded_ptx                      0 # saves ptx files embedded in binary as <n>.ptx
-gpgpu_simd_model                       1 # 0 = no recombination, 1 = post-dominator, 2 = MIMD, 3 = dynamic warp formation
-gpgpu_dram_scheduler                    1 # 0 = fifo (default), 1 = fast ideal
-gpgpu_max_cycle                        0 # terminates gpu simulation early (0 = no limit)
-gpgpu_max_insn                         0 # terminates gpu simulation early (0 = no limit)
-gpgpu_tex_cache:l1             64:64:2:L # per-shader L1 texture cache  (READ-ONLY) config, i.e., {<nsets>:<linesize>:<assoc>:<repl>|none}
-gpgpu_const_cache:l1            64:64:2:L # per-shader L1 constant memory cache  (READ-ONLY) config, i.e., {<nsets>:<linesize>:<assoc>:<repl>|none}
-gpgpu_no_dl1                           1 # no dl1 cache (voids -gpgpu_cache:dl1 option)
-gpgpu_cache:dl1               128:64:4:L # shader L1 data cache config, i.e., {<nsets>:<bsize>:<assoc>:<repl>|none}
-gpgpu_cache:dl2                     NULL # unified banked L2 data cache config, i.e., {<nsets>:<bsize>:<assoc>:<repl>|none}; disabled by default
-gpgpu_perfect_mem                      0 # enable perfect memory mode (no cache miss)
-gpgpu_shader_core_pipeline           1024:32:32 # shader core pipeline config, i.e., {<nthread>:<warpsize>:<pipe_simd_width>}
-gpgpu_shader_registers                16384 # Number of registers per shader core. Limits number of concurrent CTAs. (default 8192)
-gpgpu_shader_cta                       8 # Maximum number of concurrent CTAs in shader (default 8)
-gpgpu_n_shader                        16 # number of shaders in gpu
-gpgpu_n_mem                            8 # number of memory modules (e.g. memory controllers) in gpu
-gpgpu_n_mem_per_ctrlr                    2 # number of memory chips per memory controller
-gpgpu_runtime_stat                  1000 # display runtime statistics such as dram utilization {<freq>:<flag>}
-gpgpu_dwf_heuristic                    0 # DWF scheduling heuristic: 0 = majority, 1 = minority, 2 = timestamp, 3 = pdom priority, 4 = pc-based, 5 = max-heap
-gpgpu_reg_bankconflict                    0 # Check for bank conflict in the pipeline
-gpgpu_dwf_regbk                        1 # Have dwf scheduler to avoid bank conflict
-gpgpu_memlatency_stat                   14 # track and display latency statistics 0x2 enables MC, 0x4 enables queue logs
-gpgpu_mshr_per_thread                    1 # Number of MSHRs per thread
-gpgpu_interwarp_mshr_merge                    6 # interwarp coalescing
-gpgpu_dram_sched_queue_size                   32 # 0 = unlimited (default); # entries per chip
-gpgpu_dram_buswidth                    4 # default = 4 bytes (8 bytes per cycle at DDR)
-gpgpu_dram_burst_length                    4 # Burst length of each DRAM request (default = 4 DDR cycle)
-gpgpu_dram_timing_opt 8:2:8:12:25:10:35:10:7:6 # DRAM timing parameters = {nbk:tCCD:tRRD:tRCD:tRAS:tRP:tRC:CL:WL:tWTR}
-gpgpu_mem_address_mask                    1 # 0 = old addressing mask, 1 = new addressing mask, 2 = new add. mask + flipped bank sel and chip sel bits
-gpgpu_flush_cache                      0 # Flush cache at the end of each kernel call
-gpgpu_l2_readoverwrite                    0 # Prioritize read requests over write requests for L2
-gpgpu_pre_mem_stages                    1 # default = 0 pre-memory pipeline stages
-gpgpu_no_divg_load                     0 # Don't allow divergence on load
-gpgpu_dwf_hw                        32:2 # dynamic warp formation hw config, i.e., {<#LUT_entries>:<associativity>|none}
-gpgpu_thread_swizzling                    0 # Thread Swizzling (1=on, 0=off)
-gpgpu_strict_simd_wrbk                    0 # Applying Strick SIMD WriteBack Stage (1=on, 0=off)
-gpgpu_shmem_size                   16384 # Size of shared memory per shader core (default 16kB)
-gpgpu_shmem_bkconflict                    1 # Turn on bank conflict check for shared memory
-gpgpu_shmem_pipe_speedup                    1 # Number of groups each warp is divided for shared memory bank conflict check
-gpgpu_L2_queue         0:0:0:0:0:0:10:10 # L2 data cache queue length and latency config
-gpgpu_cache_wt_through                    0 # L1 cache become write through (1=on, 0=off)
-gpgpu_deadlock_detect                    1 # Stop the simulation at deadlock (1=on (default), 0=off)
-gpgpu_cache_bkconflict                    1 # Turn on bank conflict check for L1 cache access
-gpgpu_n_cache_bank                     1 # Number of banks in L1 cache, also for memory coalescing stall
-gpgpu_warpdistro_shader                   -1 # Specify which shader core to collect the warp size distribution from
-gpgpu_pdom_sched_type                    8 # 0 = first ready warp found, 1 = random, 8 = loose round robin
-gpgpu_spread_blocks_across_cores                    1 # Spread block-issuing across all cores instead of filling up core by core
-gpgpu_cuda_sim                         1 # use PTX instruction set
-gpgpu_ptx_instruction_classification                    0 # if enabled will classify ptx instruction types per kernel (Max 255 kernels now)
-gpgpu_ptx_sim_mode                     0 # Select between Performance (default) or Functional simulation (1)
-gpgpu_clock_domains 300.0:600.0:600.0:1000.0 # Clock Domain Frequencies in MhZ {<Core Clock>:<ICNT Clock>:<L2 Clock>:<DRAM Clock>}
-gpgpu_shmem_port_per_bank                    2 # Number of access processed by a shared memory bank per cycle (default = 2)
-gpgpu_cache_port_per_bank                    2 # Number of access processed by a cache bank per cycle (default = 2)
-gpgpu_const_port_per_bank                    2 # Number of access processed by a constant cache bank per cycle (default = 2)
-gpgpu_cflog_interval                    0 # Interval between each snapshot in control flow logger
-gpgpu_partial_write_mask                    1 # use partial write mask to filter memory requests <1>No extra reads(use this!)<2>extra reads generated for partial chunks
-gpu_concentration                      1 # Number of shader cores per interconnection port (default = 1)
-gpgpu_local_mem_map                    1 # Mapping from local memory space address to simulated GPU physical address space (default = 1)
-pipetrace_out              pipetrace.txt # specifies file to output pipetrace to
-pipetrace                              0 # Turns pipetrace on/off
-gpgpu_mem_addr_mapping dramid@8;00000000.00000000.00000000.00000000.0000RRRR.RRRRRRRR.RRBBBCCC.CCCSSSSS # mapping memory address to dram model {dramid@<start bit>;<memory address map>}
-visualizer_enabled                     1 # Turn on visualizer output (1=On, 0=Off)
-visualizer_outputfile                 NULL # Specifies the output log file for visualizer
-visualizer_zlevel                      6 # Compression level of the visualizer output log (0=no comp, 9=highest)
-enable_ptx_file_line_stats                    1 # Turn on PTX source line statistic profiling. (1 = On)
-ptx_line_stats_filename gpgpu_inst_stats.txt # Output file for PTX source line statistics.
32 16 1024 524288
16384
addr_dec_mask[CHIP]  = 0000000000000700 	high:11 low:8
addr_dec_mask[BK]    = 000000000001c000 	high:17 low:14
addr_dec_mask[ROW]   = 000000007ffe0000 	high:31 low:17
addr_dec_mask[COL]   = 00000000000038ff 	high:14 low:0
addr_dec_mask[BURST] = 000000000000001f 	high:5 low:0
*** Initializing Memory Statistics ***
nodemap
0 
1 2 3 4 
5 6 7 8 
9 10 11 12 
13 14 15 16 
17 18 19 20 
21 22 23 GPU performance model initialization complete.
GPGPU-Sim PTX: USING EMBEDDED .ptx files...
GPGPU-Sim PTX: allocating shared region for "s_int" from 0x100 to 0x100 (shared memory space)
GPGPU-Sim PTX: allocating shared region for "s_uint" from 0x100 to 0x100 (shared memory space)
GPGPU-Sim PTX: allocating shared region for "s_char" from 0x100 to 0x100 (shared memory space)
GPGPU-Sim PTX: allocating shared region for "s_uchar" from 0x100 to 0x100 (shared memory space)
GPGPU-Sim PTX: allocating shared region for "s_short" from 0x100 to 0x100 (shared memory space)
GPGPU-Sim PTX: allocating shared region for "s_ushort" from 0x100 to 0x100 (shared memory space)
GPGPU-Sim PTX: allocating shared region for "s_long" from 0x100 to 0x100 (shared memory space)
GPGPU-Sim PTX: allocating shared region for "s_ulong" from 0x100 to 0x100 (shared memory space)
GPGPU-Sim PTX: allocating shared region for "s_bool" from 0x100 to 0x100 (shared memory space)
GPGPU-Sim PTX: allocating shared region for "s_float" from 0x100 to 0x100 (shared memory space)
GPGPU-Sim PTX: allocating shared region for "s_double" from 0x100 to 0x100 (shared memory space)
GPGPU-Sim PTX: parsing function _Z10testKernelIfEvPT_S1_
GPGPU-Sim PTX: instruction assembly for function '_Z10testKernelIfEvPT_S1_'...   done.
GPGPU-Sim PTX: Finding postdominators for '_Z10testKernelIfEvPT_S1_'...
GPGPU-Sim PTX: Finding immediate postdominators for '_Z10testKernelIfEvPT_S1_'...
GPGPU-Sim PTX: parsing function _Z10testKernelIiEvPT_S1_
GPGPU-Sim PTX: instruction assembly for function '_Z10testKernelIiEvPT_S1_'...   done.
GPGPU-Sim PTX: Finding postdominators for '_Z10testKernelIiEvPT_S1_'...
GPGPU-Sim PTX: Finding immediate postdominators for '_Z10testKernelIiEvPT_S1_'...
GPGPU-Sim PTX: finished parsing EMBEDDED .ptx file _1.ptx
GPGPU-Sim PTX: extracting embedded .ptx to temporary file "_ptx_URD0bL"
GPGPU-Sim PTX: generating ptxinfo using "ptxas -v _ptx2_kgFfOi --output-file /dev/null 2> _ptx_URD0bLinfo"
GPGPU-Sim PTX: Kernel _Z10testKernelIiEvPT_S1_
GPGPU-Sim PTX: Kernel _Z10testKernelIfEvPT_S1_
GPGPU-Sim PTX: removing ptxinfo using "rm -f _ptx_URD0bL _ptx2_kgFfOi _ptx_URD0bLinfo"
GPGPU-Sim PTX: loading global with explicit initializers...  done.
GPGPU-Sim PTX: loading constants with explicit initializers...  done.
GPGPU-Sim PTX: Program parsing completed (max 22 registers used per thread).
GPGPU-Sim PTX: allocating 128 bytes on GPU starting at address 0x10000000
GPGPU-Sim PTX: cudaMallocing 128 bytes starting at 0x10000000..
GPGPU-Sim PTX: cudaMemcpy(): devPtr = 0x10000000
GPGPU-Sim PTX: copying 128 bytes from CPU[0x2f06990] to GPU[0x10000000] ...  done.
GPGPU-Sim PTX: allocating 128 bytes on GPU starting at address 0x10000080
GPGPU-Sim PTX: cudaMallocing 128 bytes starting at 0x10000080..



GPGPU-Sim PTX: cudaLaunch for 0x404050 (mode=performance simulation)
GPGPU-Sim PTX: Launching kernel '_Z10testKernelIfEvPT_S1_' gridDim= (1,1,1) blockDim = (32,1,1); ntuid=1
GPGPU-Sim uArch: clock freqs: 300000000.000000:600000000.000000:600000000.000000:1000000000.000000
GPGPU-Sim uArch: clock periods: 0.00000000333333333333:0.00000000166666666667:0.00000000166666666667:0.00000000100000000000
Reconvergence Pairs for _Z10testKernelIfEvPT_S1_
CTA/core = 8, limited by: cta_limit
Shader 0 initializing CTA #0 with hw tids from 0 to 32 @(1,0) shdr->not_completed = 0
Shader 0 finished CTA #0 (116,0)
stats for grid: 0
gpu_sim_cycle = 117
gpu_sim_insn = 672
gpu_sim_no_ld_const_insn = 608
gpu_ipc =       5.7436
gpu_completed_thread = 32
gpu_tot_sim_cycle = 117
gpu_tot_sim_insn = 672
gpu_tot_ipc =       5.7436
gpu_tot_completed_thread = 32
gpgpu_n_sent_writes = 2
gpgpu_n_processed_writes = 1
gpu_stall_by_MSHRwb= 0
gpu_stall_shd_mem  = 0
gpu_stall_wr_back  = 0
gpu_stall_dramfull = 0
gpu_stall_icnt2sh    = 0
gpu_stall_sh2icnt    = 0
gpgpu_n_load_insn  = 96
gpgpu_n_store_insn = 96
gpgpu_n_shmem_insn = 128
gpgpu_n_tex_insn = 0
gpgpu_n_const_mem_insn = 0
gpgpu_n_param_mem_insn = 64
gpgpu_n_shmem_bkconflict = 0
gpgpu_n_cache_bkconflict = 0
gpgpu_n_intrawarp_mshr_merge = 64
gpgpu_n_cmem_portconflict = 0
gpgpu_n_writeback_l1_miss = 0
gpgpu_n_partial_writes = 0
maxmrqlatency = 4 
maxdqlatency = 7 
maxmflatency = 11 
averagemflatency = 10 
max_icnt2mem_latency = 4 
max_icnt2sh_latency = 1 
mrq_lat_table:3 	0 	1 	0 	0 	0 	0 	0 	0 	0 	0 	0 	0 	0 	0 	0 	0 	0 	0 	0 	0 	0 	0 	0 	0 	0 	0 	0 	0 	0 	0 	0 	
dq_lat_table:0 	1 	2 	0 	0 	0 	0 	0 	0 	0 	0 	0 	0 	0 	0 	0 	0 	0 	0 	0 	0 	0 	0 	0 	0 	0 	0 	0 	0 	0 	0 	0 	
mf_lat_table:0 	0 	0 	2 	0 	0 	0 	0 	0 	0 	0 	0 	0 	0 	0 	0 	0 	0 	0 	0 	0 	0 	0 	0 	0 	0 	0 	0 	0 	0 	0 	0 	
icnt2mem_lat_table:1 	2 	1 	0 	0 	0 	0 	0 	0 	0 	0 	0 	0 	0 	0 	0 	0 	0 	0 	0 	0 	0 	0 	0 	
icnt2sh_lat_table:2 	0 	0 	0 	0 	0 	0 	0 	0 	0 	0 	0 	0 	0 	0 	0 	0 	0 	0 	0 	0 	0 	0 	0 	
mf_lat_pw_table:0 	0 	0 	1 	0 	0 	0 	0 	0 	0 	0 	0 	0 	0 	0 	0 	0 	0 	0 	0 	0 	0 	0 	0 	0 	0 	0 	0 	0 	0 	0 	0 	
maximum concurrent accesses to same row:
dram[0]:         0         0         0         0 
dram[1]:         0         0         0         0 
dram[2]:         0         0         0         0 
dram[3]:         0         0         0         0 
dram[4]:         0         0         0         0 
dram[5]:         0         0         0         0 
dram[6]:         0         0         0         0 
dram[7]:         0         0         0         0 
maximum service time to same row:
dram[0]:        42         0         0         0 
dram[1]:         0         0         0         0 
dram[2]:         0         0         0         0 
dram[3]:         0         0         0         0 
dram[4]:         0         0         0         0 
dram[5]:         0         0         0         0 
dram[6]:         0         0         0         0 
dram[7]:         0         0         0         0 
average row accesses per activate:
dram[0]:  4.000000      -nan      -nan      -nan 
dram[1]:      -nan      -nan      -nan      -nan 
dram[2]:      -nan      -nan      -nan      -nan 
dram[3]:      -nan      -nan      -nan      -nan 
dram[4]:      -nan      -nan      -nan      -nan 
dram[5]:      -nan      -nan      -nan      -nan 
dram[6]:      -nan      -nan      -nan      -nan 
dram[7]:      -nan      -nan      -nan      -nan 
average row locality = 4/1 = 4.000000
number of total memory accesses made:
dram[0]:        64         0         0         0 
dram[1]:         0         0         0         0 
dram[2]:         0         0         0         0 
dram[3]:         0         0         0         0 
dram[4]:         0         0         0         0 
dram[5]:         0         0         0         0 
dram[6]:         0         0         0         0 
dram[7]:         0         0         0         0 
total accesses: 64
min_bank_accesses = 0!
min_chip_accesses = 0!
number of total read accesses:
dram[0]:         2         0         0         0 
dram[1]:         0         0         0         0 
dram[2]:         0         0         0         0 
dram[3]:         0         0         0         0 
dram[4]:         0         0         0         0 
dram[5]:         0         0         0         0 
dram[6]:         0         0         0         0 
dram[7]:         0         0         0         0 
total reads: 2
min_bank_accesses = 0!
min_chip_accesses = 0!
number of total write accesses:
dram[0]:         2         0         0         0 
dram[1]:         0         0         0         0 
dram[2]:         0         0         0         0 
dram[3]:         0         0         0         0 
dram[4]:         0         0         0         0 
dram[5]:         0         0         0         0 
dram[6]:         0         0         0         0 
dram[7]:         0         0         0         0 
total reads: 2
min_bank_accesses = 0!
min_chip_accesses = 0!
average mf latency per bank:
dram[0]:          5    none      none      none  
dram[1]:     none      none      none      none  
dram[2]:     none      none      none      none  
dram[3]:     none      none      none      none  
dram[4]:     none      none      none      none  
dram[5]:     none      none      none      none  
dram[6]:     none      none      none      none  
dram[7]:     none      none      none      none  
maximum mf latency per bank:
dram[0]:         11         0         0         0
dram[1]:          0         0         0         0
dram[2]:          0         0         0         0
dram[3]:          0         0         0         0
dram[4]:          0         0         0         0
dram[5]:          0         0         0         0
dram[6]:          0         0         0         0
dram[7]:          0         0         0         0

Number of Memory Banks Accessed per Memory Operation per Warp (from 0):
0	1	0	0	0	0	0	0	0	0	0	0	0	0	0	0	0	0	0	0	0	0	0	0	0	0	0	0	0	0	0	0	0	
Average # of Memory Banks Accessed per Memory Operation per Warp=1.000000

position of mrq chosen
0	0	0	0	0	0	0	0	0	0	0	0	0	0	0	0	0	0	0	0	0	0	0	0	0	0	0	0	0	0	0	0	

average position of mrq chosen = -nan
max return queue length = 16 0 0 0 0 0 0 0 0 0 0 0 0 0 0 0 
merge misses = 30
L1 read misses = 32
L1 write misses = 0
L1 texture misses = 0
L1 const misses = 0
L2_write_miss = 0
L2_write_hit = 0
L2_read_miss = 0
L2_read_hit = 0
made_read_mfs = 2
made_write_mfs = 2
freed_read_mfs = 2
freed_L1write_mfs = 1
freed_L2write_mfs = 0
freed_dummy_read_mfs = 0
gpgpu_n_mem_read_local = 0
gpgpu_n_mem_write_local = 0
gpgpu_n_mem_read_global = 2
gpgpu_n_mem_write_global = 2
gpgpu_n_mem_texture = 0
gpgpu_n_mem_const = 0
max_n_mshr_used = 2 0 0 0 0 0 0 0 0 0 0 0 0 0 0 0 
DRAM[0]: 8 bks, busW=4 BL=4 CL=10, tRRD=2 tCCD=8, tRCD=12 tRAS=25 tRP=10 tRC=35
n_cmd=387 n_nop=378 n_act=1 n_pre=0 n_req=4 n_rd=4 n_write=4 bw_util=0.04134
n_activity=43 dram_eff=0.3721
bk0: 4a 387i bk1: 0a 387i bk2: 0a 387i bk3: 0a 387i bk4: 0a 384i bk5: 0a 384i bk6: 0a 383i bk7: 0a 372i 
dram_util_bins: 0 0 0 0 0 0 0 0 0 0
dram_eff_bins: 0 0 0 0 0 0 0 0 0 0
mrqq: max=1 avg=0.0335917
DRAM[1]: 8 bks, busW=4 BL=4 CL=10, tRRD=2 tCCD=8, tRCD=12 tRAS=25 tRP=10 tRC=35
n_cmd=387 n_nop=387 n_act=0 n_pre=0 n_req=0 n_rd=0 n_write=0 bw_util=0
n_activity=0 dram_eff=-nan
bk0: 0a 387i bk1: 0a 387i bk2: 0a 387i bk3: 0a 387i bk4: 0a 387i bk5: 0a 387i bk6: 0a 387i bk7: 0a 387i 
dram_util_bins: 0 0 0 0 0 0 0 0 0 0
dram_eff_bins: 0 0 0 0 0 0 0 0 0 0
mrqq: max=0 avg=0
DRAM[2]: 8 bks, busW=4 BL=4 CL=10, tRRD=2 tCCD=8, tRCD=12 tRAS=25 tRP=10 tRC=35
n_cmd=387 n_nop=387 n_act=0 n_pre=0 n_req=0 n_rd=0 n_write=0 bw_util=0
n_activity=0 dram_eff=-nan
bk0: 0a 387i bk1: 0a 387i bk2: 0a 387i bk3: 0a 387i bk4: 0a 387i bk5: 0a 387i bk6: 0a 387i bk7: 0a 387i 
dram_util_bins: 0 0 0 0 0 0 0 0 0 0
dram_eff_bins: 0 0 0 0 0 0 0 0 0 0
mrqq: max=0 avg=0
DRAM[3]: 8 bks, busW=4 BL=4 CL=10, tRRD=2 tCCD=8, tRCD=12 tRAS=25 tRP=10 tRC=35
n_cmd=387 n_nop=387 n_act=0 n_pre=0 n_req=0 n_rd=0 n_write=0 bw_util=0
n_activity=0 dram_eff=-nan
bk0: 0a 387i bk1: 0a 387i bk2: 0a 387i bk3: 0a 387i bk4: 0a 387i bk5: 0a 387i bk6: 0a 387i bk7: 0a 387i 
dram_util_bins: 0 0 0 0 0 0 0 0 0 0
dram_eff_bins: 0 0 0 0 0 0 0 0 0 0
mrqq: max=0 avg=0
DRAM[4]: 8 bks, busW=4 BL=4 CL=10, tRRD=2 tCCD=8, tRCD=12 tRAS=25 tRP=10 tRC=35
n_cmd=387 n_nop=387 n_act=0 n_pre=0 n_req=0 n_rd=0 n_write=0 bw_util=0
n_activity=0 dram_eff=-nan
bk0: 0a 387i bk1: 0a 387i bk2: 0a 387i bk3: 0a 387i bk4: 0a 387i bk5: 0a 387i bk6: 0a 387i bk7: 0a 387i 
dram_util_bins: 0 0 0 0 0 0 0 0 0 0
dram_eff_bins: 0 0 0 0 0 0 0 0 0 0
mrqq: max=0 avg=0
DRAM[5]: 8 bks, busW=4 BL=4 CL=10, tRRD=2 tCCD=8, tRCD=12 tRAS=25 tRP=10 tRC=35
n_cmd=387 n_nop=387 n_act=0 n_pre=0 n_req=0 n_rd=0 n_write=0 bw_util=0
n_activity=0 dram_eff=-nan
bk0: 0a 387i bk1: 0a 387i bk2: 0a 387i bk3: 0a 387i bk4: 0a 387i bk5: 0a 387i bk6: 0a 387i bk7: 0a 387i 
dram_util_bins: 0 0 0 0 0 0 0 0 0 0
dram_eff_bins: 0 0 0 0 0 0 0 0 0 0
mrqq: max=0 avg=0
DRAM[6]: 8 bks, busW=4 BL=4 CL=10, tRRD=2 tCCD=8, tRCD=12 tRAS=25 tRP=10 tRC=35
n_cmd=387 n_nop=387 n_act=0 n_pre=0 n_req=0 n_rd=0 n_write=0 bw_util=0
n_activity=0 dram_eff=-nan
bk0: 0a 387i bk1: 0a 387i bk2: 0a 387i bk3: 0a 387i bk4: 0a 387i bk5: 0a 387i bk6: 0a 387i bk7: 0a 387i 
dram_util_bins: 0 0 0 0 0 0 0 0 0 0
dram_eff_bins: 0 0 0 0 0 0 0 0 0 0
mrqq: max=0 avg=0
DRAM[7]: 8 bks, busW=4 BL=4 CL=10, tRRD=2 tCCD=8, tRCD=12 tRAS=25 tRP=10 tRC=35
n_cmd=387 n_nop=387 n_act=0 n_pre=0 n_req=0 n_rd=0 n_write=0 bw_util=0
n_activity=0 dram_eff=-nan
bk0: 0a 387i bk1: 0a 387i bk2: 0a 387i bk3: 0a 387i bk4: 0a 387i bk5: 0a 387i bk6: 0a 387i bk7: 0a 387i 
dram_util_bins: 0 0 0 0 0 0 0 0 0 0
dram_eff_bins: 0 0 0 0 0 0 0 0 0 0
mrqq: max=0 avg=0
Cache L1c_000:	Size = 32768 B (128 Set x 4-way x 64 byte line)
		Access = 0, Miss = 0 (-nan), -MgHts = -30 (inf)
Cache L1c_001:	Size = 32768 B (128 Set x 4-way x 64 byte line)
		Access = 0, Miss = 0 (-nan), -MgHts = 0 (-nan)
Cache L1c_002:	Size = 32768 B (128 Set x 4-way x 64 byte line)
		Access = 0, Miss = 0 (-nan), -MgHts = 0 (-nan)
Cache L1c_003:	Size = 32768 B (128 Set x 4-way x 64 byte line)
		Access = 0, Miss = 0 (-nan), -MgHts = 0 (-nan)
Cache L1c_004:	Size = 32768 B (128 Set x 4-way x 64 byte line)
		Access = 0, Miss = 0 (-nan), -MgHts = 0 (-nan)
Cache L1c_005:	Size = 32768 B (128 Set x 4-way x 64 byte line)
		Access = 0, Miss = 0 (-nan), -MgHts = 0 (-nan)
Cache L1c_006:	Size = 32768 B (128 Set x 4-way x 64 byte line)
		Access = 0, Miss = 0 (-nan), -MgHts = 0 (-nan)
Cache L1c_007:	Size = 32768 B (128 Set x 4-way x 64 byte line)
		Access = 0, Miss = 0 (-nan), -MgHts = 0 (-nan)
Cache L1c_008:	Size = 32768 B (128 Set x 4-way x 64 byte line)
		Access = 0, Miss = 0 (-nan), -MgHts = 0 (-nan)
Cache L1c_009:	Size = 32768 B (128 Set x 4-way x 64 byte line)
		Access = 0, Miss = 0 (-nan), -MgHts = 0 (-nan)
Cache L1c_010:	Size = 32768 B (128 Set x 4-way x 64 byte line)
		Access = 0, Miss = 0 (-nan), -MgHts = 0 (-nan)
Cache L1c_011:	Size = 32768 B (128 Set x 4-way x 64 byte line)
		Access = 0, Miss = 0 (-nan), -MgHts = 0 (-nan)
Cache L1c_012:	Size = 32768 B (128 Set x 4-way x 64 byte line)
		Access = 0, Miss = 0 (-nan), -MgHts = 0 (-nan)
Cache L1c_013:	Size = 32768 B (128 Set x 4-way x 64 byte line)
		Access = 0, Miss = 0 (-nan), -MgHts = 0 (-nan)
Cache L1c_014:	Size = 32768 B (128 Set x 4-way x 64 byte line)
		Access = 0, Miss = 0 (-nan), -MgHts = 0 (-nan)
Cache L1c_015:	Size = 32768 B (128 Set x 4-way x 64 byte line)
		Access = 0, Miss = 0 (-nan), -MgHts = 0 (-nan)
L1 Data Cache Total Miss Rate = -nan
Cache L1texc_000:	Size = 8192 B (64 Set x 2-way x 64 byte line)
		Access = 0, Miss = 0 (-nan), -MgHts = 0 (-nan)
Cache L1texc_001:	Size = 8192 B (64 Set x 2-way x 64 byte line)
		Access = 0, Miss = 0 (-nan), -MgHts = 0 (-nan)
Cache L1texc_002:	Size = 8192 B (64 Set x 2-way x 64 byte line)
		Access = 0, Miss = 0 (-nan), -MgHts = 0 (-nan)
Cache L1texc_003:	Size = 8192 B (64 Set x 2-way x 64 byte line)
		Access = 0, Miss = 0 (-nan), -MgHts = 0 (-nan)
Cache L1texc_004:	Size = 8192 B (64 Set x 2-way x 64 byte line)
		Access = 0, Miss = 0 (-nan), -MgHts = 0 (-nan)
Cache L1texc_005:	Size = 8192 B (64 Set x 2-way x 64 byte line)
		Access = 0, Miss = 0 (-nan), -MgHts = 0 (-nan)
Cache L1texc_006:	Size = 8192 B (64 Set x 2-way x 64 byte line)
		Access = 0, Miss = 0 (-nan), -MgHts = 0 (-nan)
Cache L1texc_007:	Size = 8192 B (64 Set x 2-way x 64 byte line)
		Access = 0, Miss = 0 (-nan), -MgHts = 0 (-nan)
Cache L1texc_008:	Size = 8192 B (64 Set x 2-way x 64 byte line)
		Access = 0, Miss = 0 (-nan), -MgHts = 0 (-nan)
Cache L1texc_009:	Size = 8192 B (64 Set x 2-way x 64 byte line)
		Access = 0, Miss = 0 (-nan), -MgHts = 0 (-nan)
Cache L1texc_010:	Size = 8192 B (64 Set x 2-way x 64 byte line)
		Access = 0, Miss = 0 (-nan), -MgHts = 0 (-nan)
Cache L1texc_011:	Size = 8192 B (64 Set x 2-way x 64 byte line)
		Access = 0, Miss = 0 (-nan), -MgHts = 0 (-nan)
Cache L1texc_012:	Size = 8192 B (64 Set x 2-way x 64 byte line)
		Access = 0, Miss = 0 (-nan), -MgHts = 0 (-nan)
Cache L1texc_013:	Size = 8192 B (64 Set x 2-way x 64 byte line)
		Access = 0, Miss = 0 (-nan), -MgHts = 0 (-nan)
Cache L1texc_014:	Size = 8192 B (64 Set x 2-way x 64 byte line)
		Access = 0, Miss = 0 (-nan), -MgHts = 0 (-nan)
Cache L1texc_015:	Size = 8192 B (64 Set x 2-way x 64 byte line)
		Access = 0, Miss = 0 (-nan), -MgHts = 0 (-nan)
L1 Texture Cache Total Miss Rate = -nan
Cache L1constc_000:	Size = 8192 B (64 Set x 2-way x 64 byte line)
		Access = 0, Miss = 0 (-nan), -MgHts = 0 (-nan)
Cache L1constc_001:	Size = 8192 B (64 Set x 2-way x 64 byte line)
		Access = 0, Miss = 0 (-nan), -MgHts = 0 (-nan)
Cache L1constc_002:	Size = 8192 B (64 Set x 2-way x 64 byte line)
		Access = 0, Miss = 0 (-nan), -MgHts = 0 (-nan)
Cache L1constc_003:	Size = 8192 B (64 Set x 2-way x 64 byte line)
		Access = 0, Miss = 0 (-nan), -MgHts = 0 (-nan)
Cache L1constc_004:	Size = 8192 B (64 Set x 2-way x 64 byte line)
		Access = 0, Miss = 0 (-nan), -MgHts = 0 (-nan)
Cache L1constc_005:	Size = 8192 B (64 Set x 2-way x 64 byte line)
		Access = 0, Miss = 0 (-nan), -MgHts = 0 (-nan)
Cache L1constc_006:	Size = 8192 B (64 Set x 2-way x 64 byte line)
		Access = 0, Miss = 0 (-nan), -MgHts = 0 (-nan)
Cache L1constc_007:	Size = 8192 B (64 Set x 2-way x 64 byte line)
		Access = 0, Miss = 0 (-nan), -MgHts = 0 (-nan)
Cache L1constc_008:	Size = 8192 B (64 Set x 2-way x 64 byte line)
		Access = 0, Miss = 0 (-nan), -MgHts = 0 (-nan)
Cache L1constc_009:	Size = 8192 B (64 Set x 2-way x 64 byte line)
		Access = 0, Miss = 0 (-nan), -MgHts = 0 (-nan)
Cache L1constc_010:	Size = 8192 B (64 Set x 2-way x 64 byte line)
		Access = 0, Miss = 0 (-nan), -MgHts = 0 (-nan)
Cache L1constc_011:	Size = 8192 B (64 Set x 2-way x 64 byte line)
		Access = 0, Miss = 0 (-nan), -MgHts = 0 (-nan)
Cache L1constc_012:	Size = 8192 B (64 Set x 2-way x 64 byte line)
		Access = 0, Miss = 0 (-nan), -MgHts = 0 (-nan)
Cache L1constc_013:	Size = 8192 B (64 Set x 2-way x 64 byte line)
		Access = 0, Miss = 0 (-nan), -MgHts = 0 (-nan)
Cache L1constc_014:	Size = 8192 B (64 Set x 2-way x 64 byte line)
		Access = 0, Miss = 0 (-nan), -MgHts = 0 (-nan)
Cache L1constc_015:	Size = 8192 B (64 Set x 2-way x 64 byte line)
		Access = 0, Miss = 0 (-nan), -MgHts = 0 (-nan)
L1 Const Cache Total Miss Rate = -nan
n_regconflict_stall = 0
num_warps_issuable:90 21 0 0 0 0 0 0 0 0 0 0 0 0 0 0 0 0 0 0 0 0 0 0 0 0 0 0 0 0 0 0 0 
gpgpu_commit_pc_beyond_two = 0
Warp Occupancy Distribution:
Stall:21	W0_Idle:31	W0_Mem:90	W1:0	W2:0	W3:0	W4:0	W5:0	W6:0	W7:0	W8:0	W9:0	W10:0	W11:0	W12:0	W13:0	W14:0	W15:0	W16:0	W17:0	W18:0	W19:0	W20:0	W21:0	W22:0	W23:0	W24:0	W25:0	W26:0	W27:0	W28:0	W29:0	W30:0	W31:0	W32:21
LD_mem_lat_dist  0 0 0 1 0 0 0 0 0 8 0 0 1 0 0
ST_mem_lat_dist  0 0 0 2 0 0 0 0 0 3
Traffic 0 Stat
%=================================
% Average latency = 3
% Accepted packets = 0 at node 0 (avg = 0.00143062)
lat(1) = 3;
thru(1,:) = [ 0 0 0 0 0 0 0 0 0 0 0 0 0 0 0 0 0.0343348 0 0 0 0 0 0 0 ];
% latency change    = 1
% throughput change = 1
Traffic 1 Stat
%=================================
% Average latency = 2
% Accepted packets = 0 at node 1 (avg = 0.000715308)
lat(2) = 2;
thru(2,:) = [ 0.0171674 0 0 0 0 0 0 0 0 0 0 0 0 0 0 0 0 0 0 0 0 0 0 0 ];
% latency change    = 0.5
% throughput change = 1
----------------------------Interconnect-DETAILS---------------------------------=======Traffic[0]class0 ======
Traffic[0]class0Overall average latency = 3 (1 samples)
Traffic[0]class0Overall average accepted rate = 0.00143062 (1 samples)
Traffic[0]class0Overall min accepted rate = 0 (1 samples)
traffic_manager/latency_stat_0_freq = [ 0 1 1 1 0 0 1 0 0 0 0 0 0 0 0 0 0 0 0 0 0 0 0 0 0 0 0 0 0 0 0 0 0 0 0 0 0 0 0 0 0 0 0 0 0 0 0 0 0 0 0 0 0 0 0 0 0 0 0 0 0 0 0 0 0 0 0 0 0 0 0 0 0 0 0 0 0 0 0 0 0 0 0 0 0 0 0 0 0 0 0 0 0 0 0 0 0 0 0 0 0 0 0 0 0 0 0 0 0 0 0 0 0 0 0 0 0 0 0 0 0 0 0 0 0 0 0 0 0 0 0 0 0 0 0 0 0 0 0 0 0 0 0 0 0 0 0 0 0 0 0 0 0 0 0 0 0 0 0 0 0 0 0 0 0 0 0 0 0 0 0 0 0 0 0 0 0 0 0 0 0 0 0 0 0 0 0 0 0 0 0 0 0 0 0 0 0 0 0 0 0 0 0 0 0 0 0 0 0 0 0 0 0 0 0 0 0 0 0 0 0 0 0 0 0 0 0 0 0 0 0 0 0 0 0 0 0 0 0 0 0 0 0 0 0 0 0 0 0 0 0 0 0 0 0 0 0 0 0 0 0 0 0 0 0 0 0 0 0 0 0 0 0 0 0 0 0 0 0 0 0 0 0 0 0 0 0 0 0 0 0 0 0 0 0 0 0 0 0 0 0 0 0 0 0 0 0 0 0 0 0 0 0 0 0 0 0 0 0 0 0 0 0 0 0 0 0 0 0 0 0 0 0 0 0 0 0 0 0 0 0 0 0 0 0 0 0 0 0 0 0 0 0 0 0 0 0 0 0 0 0 0 0 0 0 0 0 0 0 0 0 0 0 0 0 0 0 0 0 0 0 0 0 0 0 0 0 0 0 0 0 0 0 0 0 0 0 0 0 0 0 0 0 0 0 0 0 0 0 0 0 0 0 0 0 0 0 0 0 0 0 0 0 0 0 0 0 0 0 0 0 0 0 0 0 0 0 0 0 0 0 0 0 0 0 0 0 0 0 0 0 0 0 0 0 0 0 0 0 0 0 0 0 0 0 0 0 0 0 0 0 0 0 0 0 0 0 0 0 0 0 0 0 0 0 0 0 0 0 0 0 0 0 0 0 0 0 0 0 0 0 0 0 0 0 0 0 0 0 0 0 0 0 0 0 0 0 0 0 0 0 0 0 0 0 0 0 0 0 0 0 0 0 0 0 0 0 0 0 0 0 0 0 0 0 0 0 0 0 0 0 0 0 0 0 0 0 0 0 0 0 0 0 0 0 0 0 0 0 0 0 0 0 0 0 0 0 0 0 0 0 0 0 0 0 0 0 0 0 0 0 0 0 0 0 0 0 0 0 0 0 0 0 0 0 0 0 0 0 0 0 0 0 0 0 0 0 0 0 0 0 0 0 0 0 0 0 0 0 0 0 0 0 0 0 0 0 0 0 0 0 0 0 0 0 0 0 0 0 0 0 0 0 0 0 0 0 0 0 0 0 0 0 0 0 0 0 0 0 0 0 0 0 0 0 0 0 0 0 0 0 0 0 0 0 0 0 0 0 0 0 0 0 0 0 0 0 0 0 0 0 0 0 0 0 0 0 0 0 0 0 0 0 0 0 0 0 0 0 0 0 0 0 0 0 0 0 0 0 0 0 0 0 0 0 0 0 0 0 0 0 0 0 0 0 0 0 0 0 0 0 0 0 0 0 0 0 0 0 0 0 0 0 0 0 0 0 0 0 0 0 0 0 0 0 0 0 0 0 0 0 0 0 0 0 0 0 0 0 0 0 0 0 0 0 0 0 0 0 0 0 0 0 0 0 0 0 0 0 0 0 0 0 0 0 0 0 0 0 0 0 0 0 0 0 0 0 0 0 0 0 0 0 0 0 0 0 0 0 0 0 0 0 0 0 0 0 0 0 0 0 0 0 0 0 0 0 0 0 0 0 0 0 0 0 0 0 0 0 0 0 0 0 0 0 0 0 0 0 0 0 0 0 0 0 0 0 0 0 0 0 0 0 0 0 0 0 0 0 0 0 0 0 0 0 0 0 0 0 0 0 0 0 0 0 0 0 0 0 0 0 0 0 0 0 0 0 0 0 0 0 0 0 0 0 0 0 0 0 0 0 0 0 0 0 0 0 0 0 0 0 0 0 0 0 0 0 0 0 0 0 0 0 0 0 0 0 0 0 0 0 0 0 0 0 0 0 0 0 0 0 0 0 0 0 0 0 0 0 0 0 0 0 0 0 0 0 0 0 0 ];
Traffic[0]class1Average hops = 1 (4 samples)
traffic_manager/hop_stats_freq = [ 0 4 0 0 0 0 0 0 0 0 0 0 0 0 0 0 0 0 0 0 ];
=======Traffic[1]class0 ======
Traffic[1]class0Overall average latency = 2 (1 samples)
Traffic[1]class0Overall average accepted rate = 0.000715308 (1 samples)
Traffic[1]class0Overall min accepted rate = 0 (1 samples)
traffic_manager/latency_stat_0_freq = [ 0 0 2 0 0 0 0 0 0 0 0 0 0 0 0 0 0 0 0 0 0 0 0 0 0 0 0 0 0 0 0 0 0 0 0 0 0 0 0 0 0 0 0 0 0 0 0 0 0 0 0 0 0 0 0 0 0 0 0 0 0 0 0 0 0 0 0 0 0 0 0 0 0 0 0 0 0 0 0 0 0 0 0 0 0 0 0 0 0 0 0 0 0 0 0 0 0 0 0 0 0 0 0 0 0 0 0 0 0 0 0 0 0 0 0 0 0 0 0 0 0 0 0 0 0 0 0 0 0 0 0 0 0 0 0 0 0 0 0 0 0 0 0 0 0 0 0 0 0 0 0 0 0 0 0 0 0 0 0 0 0 0 0 0 0 0 0 0 0 0 0 0 0 0 0 0 0 0 0 0 0 0 0 0 0 0 0 0 0 0 0 0 0 0 0 0 0 0 0 0 0 0 0 0 0 0 0 0 0 0 0 0 0 0 0 0 0 0 0 0 0 0 0 0 0 0 0 0 0 0 0 0 0 0 0 0 0 0 0 0 0 0 0 0 0 0 0 0 0 0 0 0 0 0 0 0 0 0 0 0 0 0 0 0 0 0 0 0 0 0 0 0 0 0 0 0 0 0 0 0 0 0 0 0 0 0 0 0 0 0 0 0 0 0 0 0 0 0 0 0 0 0 0 0 0 0 0 0 0 0 0 0 0 0 0 0 0 0 0 0 0 0 0 0 0 0 0 0 0 0 0 0 0 0 0 0 0 0 0 0 0 0 0 0 0 0 0 0 0 0 0 0 0 0 0 0 0 0 0 0 0 0 0 0 0 0 0 0 0 0 0 0 0 0 0 0 0 0 0 0 0 0 0 0 0 0 0 0 0 0 0 0 0 0 0 0 0 0 0 0 0 0 0 0 0 0 0 0 0 0 0 0 0 0 0 0 0 0 0 0 0 0 0 0 0 0 0 0 0 0 0 0 0 0 0 0 0 0 0 0 0 0 0 0 0 0 0 0 0 0 0 0 0 0 0 0 0 0 0 0 0 0 0 0 0 0 0 0 0 0 0 0 0 0 0 0 0 0 0 0 0 0 0 0 0 0 0 0 0 0 0 0 0 0 0 0 0 0 0 0 0 0 0 0 0 0 0 0 0 0 0 0 0 0 0 0 0 0 0 0 0 0 0 0 0 0 0 0 0 0 0 0 0 0 0 0 0 0 0 0 0 0 0 0 0 0 0 0 0 0 0 0 0 0 0 0 0 0 0 0 0 0 0 0 0 0 0 0 0 0 0 0 0 0 0 0 0 0 0 0 0 0 0 0 0 0 0 0 0 0 0 0 0 0 0 0 0 0 0 0 0 0 0 0 0 0 0 0 0 0 0 0 0 0 0 0 0 0 0 0 0 0 0 0 0 0 0 0 0 0 0 0 0 0 0 0 0 0 0 0 0 0 0 0 0 0 0 0 0 0 0 0 0 0 0 0 0 0 0 0 0 0 0 0 0 0 0 0 0 0 0 0 0 0 0 0 0 0 0 0 0 0 0 0 0 0 0 0 0 0 0 0 0 0 0 0 0 0 0 0 0 0 0 0 0 0 0 0 0 0 0 0 0 0 0 0 0 0 0 0 0 0 0 0 0 0 0 0 0 0 0 0 0 0 0 0 0 0 0 0 0 0 0 0 0 0 0 0 0 0 0 0 0 0 0 0 0 0 0 0 0 0 0 0 0 0 0 0 0 0 0 0 0 0 0 0 0 0 0 0 0 0 0 0 0 0 0 0 0 0 0 0 0 0 0 0 0 0 0 0 0 0 0 0 0 0 0 0 0 0 0 0 0 0 0 0 0 0 0 0 0 0 0 0 0 0 0 0 0 0 0 0 0 0 0 0 0 0 0 0 0 0 0 0 0 0 0 0 0 0 0 0 0 0 0 0 0 0 0 0 0 0 0 0 0 0 0 0 0 0 0 0 0 0 0 0 0 0 0 0 0 0 0 0 0 0 0 0 0 0 0 0 0 0 0 0 0 0 0 0 0 0 0 0 0 0 0 0 0 0 0 0 0 0 0 0 0 0 0 0 0 0 0 0 0 0 0 0 0 0 0 0 0 0 0 0 0 0 0 0 0 0 0 0 0 0 0 0 0 0 0 0 0 0 0 0 0 0 0 0 0 0 0 0 0 0 0 0 0 0 0 0 0 0 0 0 0 0 0 0 0 0 0 0 0 0 0 0 0 0 0 0 0 0 0 0 0 0 0 0 ];
Traffic[1]class1Average hops = 1 (2 samples)
traffic_manager/hop_stats_freq = [ 0 2 0 0 0 0 0 0 0 0 0 0 0 0 0 0 0 0 0 0 ];
----------------------------END-of-Interconnect-DETAILS-------------------------(LOGB2)Latency DRAM[0] Stats for mrqq
Min 0.000000 Max 0.000000 Average 0.000000 
mrqq_freq = [ 4 0 0 0 0 0 0 0 0 0 0 0 0 0 0 0 0 0 0 0 0 0 0 0 0 0 0 0 0 0 0 0 ];
(LOGB2)Latency DRAM[0] Stats for rwq
Min 0.000000 Max 2.000000 Average 0.997416 
rwq_freq = [ 4 380 3 0 0 0 0 0 0 0 0 0 0 0 0 0 0 0 0 0 0 0 0 0 0 0 0 0 0 0 0 0 ];
(LOGB2)Latency DRAM[1] Stats for mrqq
 was never updated!
(LOGB2)Latency DRAM[1] Stats for rwq
Min 0.000000 Max 2.000000 Average 0.997416 
rwq_freq = [ 4 380 3 0 0 0 0 0 0 0 0 0 0 0 0 0 0 0 0 0 0 0 0 0 0 0 0 0 0 0 0 0 ];
(LOGB2)Latency DRAM[2] Stats for mrqq
 was never updated!
(LOGB2)Latency DRAM[2] Stats for rwq
Min 0.000000 Max 2.000000 Average 0.997416 
rwq_freq = [ 4 380 3 0 0 0 0 0 0 0 0 0 0 0 0 0 0 0 0 0 0 0 0 0 0 0 0 0 0 0 0 0 ];
(LOGB2)Latency DRAM[3] Stats for mrqq
 was never updated!
(LOGB2)Latency DRAM[3] Stats for rwq
Min 0.000000 Max 2.000000 Average 0.997416 
rwq_freq = [ 4 380 3 0 0 0 0 0 0 0 0 0 0 0 0 0 0 0 0 0 0 0 0 0 0 0 0 0 0 0 0 0 ];
(LOGB2)Latency DRAM[4] Stats for mrqq
 was never updated!
(LOGB2)Latency DRAM[4] Stats for rwq
Min 0.000000 Max 2.000000 Average 0.997416 
rwq_freq = [ 4 380 3 0 0 0 0 0 0 0 0 0 0 0 0 0 0 0 0 0 0 0 0 0 0 0 0 0 0 0 0 0 ];
(LOGB2)Latency DRAM[5] Stats for mrqq
 was never updated!
(LOGB2)Latency DRAM[5] Stats for rwq
Min 0.000000 Max 2.000000 Average 0.997416 
rwq_freq = [ 4 380 3 0 0 0 0 0 0 0 0 0 0 0 0 0 0 0 0 0 0 0 0 0 0 0 0 0 0 0 0 0 ];
(LOGB2)Latency DRAM[6] Stats for mrqq
 was never updated!
(LOGB2)Latency DRAM[6] Stats for rwq
Min 0.000000 Max 2.000000 Average 0.997416 
rwq_freq = [ 4 380 3 0 0 0 0 0 0 0 0 0 0 0 0 0 0 0 0 0 0 0 0 0 0 0 0 0 0 0 0 0 ];
(LOGB2)Latency DRAM[7] Stats for mrqq
 was never updated!
(LOGB2)Latency DRAM[7] Stats for rwq
Min 0.000000 Max 2.000000 Average 0.997416 
rwq_freq = [ 4 380 3 0 0 0 0 0 0 0 0 0 0 0 0 0 0 0 0 0 0 0 0 0 0 0 0 0 0 0 0 0 ];
Queue Length DRAM[0] Stats for mrqq_length
Min 0.000000 Max 1.000000 Average 0.033592 
mrqq_length_freq = [ 374 13 0 0 0 0 0 0 0 0 0 0 0 0 0 0 0 0 0 0 0 0 0 0 0 0 0 0 0 0 0 0 ];
Queue Length DRAM[1] Stats for mrqq_length
Min 0.000000 Max 0.000000 Average 0.000000 
mrqq_length_freq = [ 387 0 0 0 0 0 0 0 0 0 0 0 0 0 0 0 0 0 0 0 0 0 0 0 0 0 0 0 0 0 0 0 ];
Queue Length DRAM[2] Stats for mrqq_length
Min 0.000000 Max 0.000000 Average 0.000000 
mrqq_length_freq = [ 387 0 0 0 0 0 0 0 0 0 0 0 0 0 0 0 0 0 0 0 0 0 0 0 0 0 0 0 0 0 0 0 ];
Queue Length DRAM[3] Stats for mrqq_length
Min 0.000000 Max 0.000000 Average 0.000000 
mrqq_length_freq = [ 387 0 0 0 0 0 0 0 0 0 0 0 0 0 0 0 0 0 0 0 0 0 0 0 0 0 0 0 0 0 0 0 ];
Queue Length DRAM[4] Stats for mrqq_length
Min 0.000000 Max 0.000000 Average 0.000000 
mrqq_length_freq = [ 387 0 0 0 0 0 0 0 0 0 0 0 0 0 0 0 0 0 0 0 0 0 0 0 0 0 0 0 0 0 0 0 ];
Queue Length DRAM[5] Stats for mrqq_length
Min 0.000000 Max 0.000000 Average 0.000000 
mrqq_length_freq = [ 387 0 0 0 0 0 0 0 0 0 0 0 0 0 0 0 0 0 0 0 0 0 0 0 0 0 0 0 0 0 0 0 ];
Queue Length DRAM[6] Stats for mrqq_length
Min 0.000000 Max 0.000000 Average 0.000000 
mrqq_length_freq = [ 387 0 0 0 0 0 0 0 0 0 0 0 0 0 0 0 0 0 0 0 0 0 0 0 0 0 0 0 0 0 0 0 ];
Queue Length DRAM[7] Stats for mrqq_length
Min 0.000000 Max 0.000000 Average 0.000000 
mrqq_length_freq = [ 387 0 0 0 0 0 0 0 0 0 0 0 0 0 0 0 0 0 0 0 0 0 0 0 0 0 0 0 0 0 0 0 ];


gpgpu_simulation_time = 0 days, 0 hrs, 0 min, 1 sec (1 sec)
gpgpu_simulation_rate = 672 (inst/sec)
gpgpu_simulation_rate = 117 (cycle/sec)
GPGPU-Sim PTX: Execution warning: ignoring call to "cudaError_t cudaEventSynchronize(cudaEvent_t)"
Kernel Execution Time: 0.000000 (ms)
GPGPU-Sim PTX: cudaMemcpy(): devPtr = 0x2f55c10
GPGPU-Sim PTX: copying 128 bytes from GPU[0x10000080] to CPU[0x2f55c10] ... done.
Test PASSED
GPGPU-Sim PTX: allocating 256 bytes on GPU starting at address 0x10000100
GPGPU-Sim PTX: cudaMallocing 256 bytes starting at 0x10000100..
GPGPU-Sim PTX: cudaMemcpy(): devPtr = 0x10000100
GPGPU-Sim PTX: copying 256 bytes from CPU[0x2f56520] to GPU[0x10000100] ...  done.
GPGPU-Sim PTX: allocating 256 bytes on GPU starting at address 0x10000200
GPGPU-Sim PTX: cudaMallocing 256 bytes starting at 0x10000200..



GPGPU-Sim PTX: cudaLaunch for 0x404060 (mode=performance simulation)
GPGPU-Sim PTX: Launching kernel '_Z10testKernelIiEvPT_S1_' gridDim= (1,1,1) blockDim = (64,1,1); ntuid=33
GPGPU-Sim uArch: clock freqs: 300000000.000000:600000000.000000:600000000.000000:1000000000.000000
GPGPU-Sim uArch: clock periods: 0.00000000333333333333:0.00000000166666666667:0.00000000166666666667:0.00000000100000000000
Reconvergence Pairs for _Z10testKernelIiEvPT_S1_
CTA/core = 8, limited by: cta_limit
Shader 0 initializing CTA #0 with hw tids from 0 to 64 @(1,117) shdr->not_completed = 0
Shader 0 finished CTA #0 (113,117)
stats for grid: 1
gpu_sim_cycle = 114
gpu_sim_insn = 1280
gpu_sim_no_ld_const_insn = 1152
gpu_ipc =      11.2281
gpu_completed_thread = 64
gpu_tot_sim_cycle = 231
gpu_tot_sim_insn = 1952
gpu_tot_ipc =       8.4502
gpu_tot_completed_thread = 96
gpgpu_n_sent_writes = 6
gpgpu_n_processed_writes = 4
gpu_stall_by_MSHRwb= 0
gpu_stall_shd_mem  = 0
gpu_stall_wr_back  = 0
gpu_stall_dramfull = 0
gpu_stall_icnt2sh    = 0
gpu_stall_sh2icnt    = 0
gpgpu_n_load_insn  = 288
gpgpu_n_store_insn = 288
gpgpu_n_shmem_insn = 384
gpgpu_n_tex_insn = 0
gpgpu_n_const_mem_insn = 0
gpgpu_n_param_mem_insn = 192
gpgpu_n_shmem_bkconflict = 0
gpgpu_n_cache_bkconflict = 0
gpgpu_n_intrawarp_mshr_merge = 192
gpgpu_n_cmem_portconflict = 0
gpgpu_n_writeback_l1_miss = 0
gpgpu_n_partial_writes = 0
maxmrqlatency = 5 
maxdqlatency = 7 
maxmflatency = 12 
averagemflatency = 11 
max_icnt2mem_latency = 5 
max_icnt2sh_latency = 1 
mrq_lat_table:8 	0 	4 	0 	0 	0 	0 	0 	0 	0 	0 	0 	0 	0 	0 	0 	0 	0 	0 	0 	0 	0 	0 	0 	0 	0 	0 	0 	0 	0 	0 	0 	
dq_lat_table:0 	2 	8 	0 	0 	0 	0 	0 	0 	0 	0 	0 	0 	0 	0 	0 	0 	0 	0 	0 	0 	0 	0 	0 	0 	0 	0 	0 	0 	0 	0 	0 	
mf_lat_table:0 	0 	0 	6 	0 	0 	0 	0 	0 	0 	0 	0 	0 	0 	0 	0 	0 	0 	0 	0 	0 	0 	0 	0 	0 	0 	0 	0 	0 	0 	0 	0 	
icnt2mem_lat_table:3 	6 	3 	0 	0 	0 	0 	0 	0 	0 	0 	0 	0 	0 	0 	0 	0 	0 	0 	0 	0 	0 	0 	0 	
icnt2sh_lat_table:6 	0 	0 	0 	0 	0 	0 	0 	0 	0 	0 	0 	0 	0 	0 	0 	0 	0 	0 	0 	0 	0 	0 	0 	
mf_lat_pw_table:0 	0 	0 	2 	0 	0 	0 	0 	0 	0 	0 	0 	0 	0 	0 	0 	0 	0 	0 	0 	0 	0 	0 	0 	0 	0 	0 	0 	0 	0 	0 	0 	
maximum concurrent accesses to same row:
dram[0]:         0         0         0         0 
dram[1]:         0         0         0         0 
dram[2]:         0         0         0         0 
dram[3]:         0         0         0         0 
dram[4]:         0         0         0         0 
dram[5]:         0         0         0         0 
dram[6]:         0         0         0         0 
dram[7]:         0         0         0         0 
maximum service time to same row:
dram[0]:        42         0         0         0 
dram[1]:        42         0         0         0 
dram[2]:       108         0         0         0 
dram[3]:         0         0         0         0 
dram[4]:         0         0         0         0 
dram[5]:         0         0         0         0 
dram[6]:         0         0         0         0 
dram[7]:         0         0         0         0 
average row accesses per activate:
dram[0]:  4.000000      -nan      -nan      -nan 
dram[1]:  4.000000      -nan      -nan      -nan 
dram[2]:  4.000000      -nan      -nan      -nan 
dram[3]:      -nan      -nan      -nan      -nan 
dram[4]:      -nan      -nan      -nan      -nan 
dram[5]:      -nan      -nan      -nan      -nan 
dram[6]:      -nan      -nan      -nan      -nan 
dram[7]:      -nan      -nan      -nan      -nan 
average row locality = 12/3 = 4.000000
number of total memory accesses made:
dram[0]:        64         0         0         0 
dram[1]:        64         0         0         0 
dram[2]:        64         0         0         0 
dram[3]:         0         0         0         0 
dram[4]:         0         0         0         0 
dram[5]:         0         0         0         0 
dram[6]:         0         0         0         0 
dram[7]:         0         0         0         0 
total accesses: 192
min_bank_accesses = 0!
min_chip_accesses = 0!
number of total read accesses:
dram[0]:         2         0         0         0 
dram[1]:         4         0         0         0 
dram[2]:         0         0         0         0 
dram[3]:         0         0         0         0 
dram[4]:         0         0         0         0 
dram[5]:         0         0         0         0 
dram[6]:         0         0         0         0 
dram[7]:         0         0         0         0 
total reads: 6
min_bank_accesses = 0!
min_chip_accesses = 0!
number of total write accesses:
dram[0]:         2         0         0         0 
dram[1]:         0         0         0         0 
dram[2]:         4         0         0         0 
dram[3]:         0         0         0         0 
dram[4]:         0         0         0         0 
dram[5]:         0         0         0         0 
dram[6]:         0         0         0         0 
dram[7]:         0         0         0         0 
total reads: 6
min_bank_accesses = 0!
min_chip_accesses = 0!
average mf latency per bank:
dram[0]:          5    none      none      none  
dram[1]:         11    none      none      none  
dram[2]:          0    none      none      none  
dram[3]:     none      none      none      none  
dram[4]:     none      none      none      none  
dram[5]:     none      none      none      none  
dram[6]:     none      none      none      none  
dram[7]:     none      none      none      none  
maximum mf latency per bank:
dram[0]:         11         0         0         0
dram[1]:         12         0         0         0
dram[2]:          0         0         0         0
dram[3]:          0         0         0         0
dram[4]:          0         0         0         0
dram[5]:          0         0         0         0
dram[6]:          0         0         0         0
dram[7]:          0         0         0         0

Number of Memory Banks Accessed per Memory Operation per Warp (from 0):
0	3	0	0	0	0	0	0	0	0	0	0	0	0	0	0	0	0	0	0	0	0	0	0	0	0	0	0	0	0	0	0	0	
Average # of Memory Banks Accessed per Memory Operation per Warp=1.000000

position of mrq chosen
0	0	0	0	0	0	0	0	0	0	0	0	0	0	0	0	0	0	0	0	0	0	0	0	0	0	0	0	0	0	0	0	

average position of mrq chosen = -nan
max return queue length = 16 0 0 0 0 0 0 0 0 0 0 0 0 0 0 0 
merge misses = 90
L1 read misses = 96
L1 write misses = 0
L1 texture misses = 0
L1 const misses = 0
L2_write_miss = 0
L2_write_hit = 0
L2_read_miss = 0
L2_read_hit = 0
made_read_mfs = 6
made_write_mfs = 6
freed_read_mfs = 6
freed_L1write_mfs = 4
freed_L2write_mfs = 0
freed_dummy_read_mfs = 0
gpgpu_n_mem_read_local = 0
gpgpu_n_mem_write_local = 0
gpgpu_n_mem_read_global = 6
gpgpu_n_mem_write_global = 6
gpgpu_n_mem_texture = 0
gpgpu_n_mem_const = 0
max_n_mshr_used = 2 0 0 0 0 0 0 0 0 0 0 0 0 0 0 0 
DRAM[0]: 8 bks, busW=4 BL=4 CL=10, tRRD=2 tCCD=8, tRCD=12 tRAS=25 tRP=10 tRC=35
n_cmd=764 n_nop=755 n_act=1 n_pre=0 n_req=4 n_rd=4 n_write=4 bw_util=0.02094
n_activity=43 dram_eff=0.3721
bk0: 4a 764i bk1: 0a 764i bk2: 0a 764i bk3: 0a 764i bk4: 0a 761i bk5: 0a 761i bk6: 0a 760i bk7: 0a 749i 
dram_util_bins: 0 0 0 0 0 0 0 0 0 0
dram_eff_bins: 0 0 0 0 0 0 0 0 0 0
mrqq: max=1 avg=0.0170157
DRAM[1]: 8 bks, busW=4 BL=4 CL=10, tRRD=2 tCCD=8, tRCD=12 tRAS=25 tRP=10 tRC=35
n_cmd=764 n_nop=755 n_act=1 n_pre=0 n_req=4 n_rd=8 n_write=0 bw_util=0.02094
n_activity=35 dram_eff=0.4571
bk0: 8a 764i bk1: 0a 764i bk2: 0a 764i bk3: 0a 764i bk4: 0a 760i bk5: 0a 760i bk6: 0a 760i bk7: 0a 749i 
dram_util_bins: 0 0 0 0 0 0 0 0 0 0
dram_eff_bins: 0 0 0 0 0 0 0 0 0 0
mrqq: max=3 avg=0.0602094
DRAM[2]: 8 bks, busW=4 BL=4 CL=10, tRRD=2 tCCD=8, tRCD=12 tRAS=25 tRP=10 tRC=35
n_cmd=764 n_nop=755 n_act=1 n_pre=0 n_req=4 n_rd=0 n_write=8 bw_util=0.02094
n_activity=20 dram_eff=0.8
bk0: 0a 764i bk1: 0a 764i bk2: 0a 764i bk3: 0a 764i bk4: 0a 760i bk5: 0a 760i bk6: 0a 760i bk7: 0a 757i 
dram_util_bins: 0 0 0 0 0 0 0 0 0 0
dram_eff_bins: 0 0 0 0 0 0 0 0 0 0
mrqq: max=1 avg=0.0039267
DRAM[3]: 8 bks, busW=4 BL=4 CL=10, tRRD=2 tCCD=8, tRCD=12 tRAS=25 tRP=10 tRC=35
n_cmd=764 n_nop=764 n_act=0 n_pre=0 n_req=0 n_rd=0 n_write=0 bw_util=0
n_activity=0 dram_eff=-nan
bk0: 0a 764i bk1: 0a 764i bk2: 0a 764i bk3: 0a 764i bk4: 0a 764i bk5: 0a 764i bk6: 0a 764i bk7: 0a 764i 
dram_util_bins: 0 0 0 0 0 0 0 0 0 0
dram_eff_bins: 0 0 0 0 0 0 0 0 0 0
mrqq: max=0 avg=0
DRAM[4]: 8 bks, busW=4 BL=4 CL=10, tRRD=2 tCCD=8, tRCD=12 tRAS=25 tRP=10 tRC=35
n_cmd=764 n_nop=764 n_act=0 n_pre=0 n_req=0 n_rd=0 n_write=0 bw_util=0
n_activity=0 dram_eff=-nan
bk0: 0a 764i bk1: 0a 764i bk2: 0a 764i bk3: 0a 764i bk4: 0a 764i bk5: 0a 764i bk6: 0a 764i bk7: 0a 764i 
dram_util_bins: 0 0 0 0 0 0 0 0 0 0
dram_eff_bins: 0 0 0 0 0 0 0 0 0 0
mrqq: max=0 avg=0
DRAM[5]: 8 bks, busW=4 BL=4 CL=10, tRRD=2 tCCD=8, tRCD=12 tRAS=25 tRP=10 tRC=35
n_cmd=764 n_nop=764 n_act=0 n_pre=0 n_req=0 n_rd=0 n_write=0 bw_util=0
n_activity=0 dram_eff=-nan
bk0: 0a 764i bk1: 0a 764i bk2: 0a 764i bk3: 0a 764i bk4: 0a 764i bk5: 0a 764i bk6: 0a 764i bk7: 0a 764i 
dram_util_bins: 0 0 0 0 0 0 0 0 0 0
dram_eff_bins: 0 0 0 0 0 0 0 0 0 0
mrqq: max=0 avg=0
DRAM[6]: 8 bks, busW=4 BL=4 CL=10, tRRD=2 tCCD=8, tRCD=12 tRAS=25 tRP=10 tRC=35
n_cmd=764 n_nop=764 n_act=0 n_pre=0 n_req=0 n_rd=0 n_write=0 bw_util=0
n_activity=0 dram_eff=-nan
bk0: 0a 764i bk1: 0a 764i bk2: 0a 764i bk3: 0a 764i bk4: 0a 764i bk5: 0a 764i bk6: 0a 764i bk7: 0a 764i 
dram_util_bins: 0 0 0 0 0 0 0 0 0 0
dram_eff_bins: 0 0 0 0 0 0 0 0 0 0
mrqq: max=0 avg=0
DRAM[7]: 8 bks, busW=4 BL=4 CL=10, tRRD=2 tCCD=8, tRCD=12 tRAS=25 tRP=10 tRC=35
n_cmd=764 n_nop=764 n_act=0 n_pre=0 n_req=0 n_rd=0 n_write=0 bw_util=0
n_activity=0 dram_eff=-nan
bk0: 0a 764i bk1: 0a 764i bk2: 0a 764i bk3: 0a 764i bk4: 0a 764i bk5: 0a 764i bk6: 0a 764i bk7: 0a 764i 
dram_util_bins: 0 0 0 0 0 0 0 0 0 0
dram_eff_bins: 0 0 0 0 0 0 0 0 0 0
mrqq: max=0 avg=0
Cache L1c_000:	Size = 32768 B (128 Set x 4-way x 64 byte line)
		Access = 0, Miss = 0 (-nan), -MgHts = -90 (inf)
Cache L1c_001:	Size = 32768 B (128 Set x 4-way x 64 byte line)
		Access = 0, Miss = 0 (-nan), -MgHts = 0 (-nan)
Cache L1c_002:	Size = 32768 B (128 Set x 4-way x 64 byte line)
		Access = 0, Miss = 0 (-nan), -MgHts = 0 (-nan)
Cache L1c_003:	Size = 32768 B (128 Set x 4-way x 64 byte line)
		Access = 0, Miss = 0 (-nan), -MgHts = 0 (-nan)
Cache L1c_004:	Size = 32768 B (128 Set x 4-way x 64 byte line)
		Access = 0, Miss = 0 (-nan), -MgHts = 0 (-nan)
Cache L1c_005:	Size = 32768 B (128 Set x 4-way x 64 byte line)
		Access = 0, Miss = 0 (-nan), -MgHts = 0 (-nan)
Cache L1c_006:	Size = 32768 B (128 Set x 4-way x 64 byte line)
		Access = 0, Miss = 0 (-nan), -MgHts = 0 (-nan)
Cache L1c_007:	Size = 32768 B (128 Set x 4-way x 64 byte line)
		Access = 0, Miss = 0 (-nan), -MgHts = 0 (-nan)
Cache L1c_008:	Size = 32768 B (128 Set x 4-way x 64 byte line)
		Access = 0, Miss = 0 (-nan), -MgHts = 0 (-nan)
Cache L1c_009:	Size = 32768 B (128 Set x 4-way x 64 byte line)
		Access = 0, Miss = 0 (-nan), -MgHts = 0 (-nan)
Cache L1c_010:	Size = 32768 B (128 Set x 4-way x 64 byte line)
		Access = 0, Miss = 0 (-nan), -MgHts = 0 (-nan)
Cache L1c_011:	Size = 32768 B (128 Set x 4-way x 64 byte line)
		Access = 0, Miss = 0 (-nan), -MgHts = 0 (-nan)
Cache L1c_012:	Size = 32768 B (128 Set x 4-way x 64 byte line)
		Access = 0, Miss = 0 (-nan), -MgHts = 0 (-nan)
Cache L1c_013:	Size = 32768 B (128 Set x 4-way x 64 byte line)
		Access = 0, Miss = 0 (-nan), -MgHts = 0 (-nan)
Cache L1c_014:	Size = 32768 B (128 Set x 4-way x 64 byte line)
		Access = 0, Miss = 0 (-nan), -MgHts = 0 (-nan)
Cache L1c_015:	Size = 32768 B (128 Set x 4-way x 64 byte line)
		Access = 0, Miss = 0 (-nan), -MgHts = 0 (-nan)
L1 Data Cache Total Miss Rate = -nan
Cache L1texc_000:	Size = 8192 B (64 Set x 2-way x 64 byte line)
		Access = 0, Miss = 0 (-nan), -MgHts = 0 (-nan)
Cache L1texc_001:	Size = 8192 B (64 Set x 2-way x 64 byte line)
		Access = 0, Miss = 0 (-nan), -MgHts = 0 (-nan)
Cache L1texc_002:	Size = 8192 B (64 Set x 2-way x 64 byte line)
		Access = 0, Miss = 0 (-nan), -MgHts = 0 (-nan)
Cache L1texc_003:	Size = 8192 B (64 Set x 2-way x 64 byte line)
		Access = 0, Miss = 0 (-nan), -MgHts = 0 (-nan)
Cache L1texc_004:	Size = 8192 B (64 Set x 2-way x 64 byte line)
		Access = 0, Miss = 0 (-nan), -MgHts = 0 (-nan)
Cache L1texc_005:	Size = 8192 B (64 Set x 2-way x 64 byte line)
		Access = 0, Miss = 0 (-nan), -MgHts = 0 (-nan)
Cache L1texc_006:	Size = 8192 B (64 Set x 2-way x 64 byte line)
		Access = 0, Miss = 0 (-nan), -MgHts = 0 (-nan)
Cache L1texc_007:	Size = 8192 B (64 Set x 2-way x 64 byte line)
		Access = 0, Miss = 0 (-nan), -MgHts = 0 (-nan)
Cache L1texc_008:	Size = 8192 B (64 Set x 2-way x 64 byte line)
		Access = 0, Miss = 0 (-nan), -MgHts = 0 (-nan)
Cache L1texc_009:	Size = 8192 B (64 Set x 2-way x 64 byte line)
		Access = 0, Miss = 0 (-nan), -MgHts = 0 (-nan)
Cache L1texc_010:	Size = 8192 B (64 Set x 2-way x 64 byte line)
		Access = 0, Miss = 0 (-nan), -MgHts = 0 (-nan)
Cache L1texc_011:	Size = 8192 B (64 Set x 2-way x 64 byte line)
		Access = 0, Miss = 0 (-nan), -MgHts = 0 (-nan)
Cache L1texc_012:	Size = 8192 B (64 Set x 2-way x 64 byte line)
		Access = 0, Miss = 0 (-nan), -MgHts = 0 (-nan)
Cache L1texc_013:	Size = 8192 B (64 Set x 2-way x 64 byte line)
		Access = 0, Miss = 0 (-nan), -MgHts = 0 (-nan)
Cache L1texc_014:	Size = 8192 B (64 Set x 2-way x 64 byte line)
		Access = 0, Miss = 0 (-nan), -MgHts = 0 (-nan)
Cache L1texc_015:	Size = 8192 B (64 Set x 2-way x 64 byte line)
		Access = 0, Miss = 0 (-nan), -MgHts = 0 (-nan)
L1 Texture Cache Total Miss Rate = -nan
Cache L1constc_000:	Size = 8192 B (64 Set x 2-way x 64 byte line)
		Access = 0, Miss = 0 (-nan), -MgHts = 0 (-nan)
Cache L1constc_001:	Size = 8192 B (64 Set x 2-way x 64 byte line)
		Access = 0, Miss = 0 (-nan), -MgHts = 0 (-nan)
Cache L1constc_002:	Size = 8192 B (64 Set x 2-way x 64 byte line)
		Access = 0, Miss = 0 (-nan), -MgHts = 0 (-nan)
Cache L1constc_003:	Size = 8192 B (64 Set x 2-way x 64 byte line)
		Access = 0, Miss = 0 (-nan), -MgHts = 0 (-nan)
Cache L1constc_004:	Size = 8192 B (64 Set x 2-way x 64 byte line)
		Access = 0, Miss = 0 (-nan), -MgHts = 0 (-nan)
Cache L1constc_005:	Size = 8192 B (64 Set x 2-way x 64 byte line)
		Access = 0, Miss = 0 (-nan), -MgHts = 0 (-nan)
Cache L1constc_006:	Size = 8192 B (64 Set x 2-way x 64 byte line)
		Access = 0, Miss = 0 (-nan), -MgHts = 0 (-nan)
Cache L1constc_007:	Size = 8192 B (64 Set x 2-way x 64 byte line)
		Access = 0, Miss = 0 (-nan), -MgHts = 0 (-nan)
Cache L1constc_008:	Size = 8192 B (64 Set x 2-way x 64 byte line)
		Access = 0, Miss = 0 (-nan), -MgHts = 0 (-nan)
Cache L1constc_009:	Size = 8192 B (64 Set x 2-way x 64 byte line)
		Access = 0, Miss = 0 (-nan), -MgHts = 0 (-nan)
Cache L1constc_010:	Size = 8192 B (64 Set x 2-way x 64 byte line)
		Access = 0, Miss = 0 (-nan), -MgHts = 0 (-nan)
Cache L1constc_011:	Size = 8192 B (64 Set x 2-way x 64 byte line)
		Access = 0, Miss = 0 (-nan), -MgHts = 0 (-nan)
Cache L1constc_012:	Size = 8192 B (64 Set x 2-way x 64 byte line)
		Access = 0, Miss = 0 (-nan), -MgHts = 0 (-nan)
Cache L1constc_013:	Size = 8192 B (64 Set x 2-way x 64 byte line)
		Access = 0, Miss = 0 (-nan), -MgHts = 0 (-nan)
Cache L1constc_014:	Size = 8192 B (64 Set x 2-way x 64 byte line)
		Access = 0, Miss = 0 (-nan), -MgHts = 0 (-nan)
Cache L1constc_015:	Size = 8192 B (64 Set x 2-way x 64 byte line)
		Access = 0, Miss = 0 (-nan), -MgHts = 0 (-nan)
L1 Const Cache Total Miss Rate = -nan
n_regconflict_stall = 0
num_warps_issuable:158 60 1 0 0 0 0 0 0 0 0 0 0 0 0 0 0 0 0 0 0 0 0 0 0 0 0 0 0 0 0 0 0 
gpgpu_commit_pc_beyond_two = 0
Warp Occupancy Distribution:
Stall:42	W0_Idle:31	W0_Mem:158	W1:0	W2:0	W3:0	W4:0	W5:0	W6:0	W7:0	W8:0	W9:0	W10:0	W11:0	W12:0	W13:0	W14:0	W15:0	W16:0	W17:0	W18:0	W19:0	W20:0	W21:0	W22:0	W23:0	W24:0	W25:0	W26:0	W27:0	W28:0	W29:0	W30:0	W31:0	W32:61
LD_mem_lat_dist  0 0 0 1 0 0 0 0 0 9 0 0 0 0 0
ST_mem_lat_dist  0 0 0 3 0 0 0 0 0 4
Traffic 0 Stat
%=================================
% Average latency = 3.5
% Accepted packets = 0 at node 0 (avg = 0.00293686)
lat(3) = 3.5;
thru(3,:) = [ 0 0 0 0 0 0 0 0 0 0 0 0 0 0 0 0 0 0.0176211 0.0528634 0 0 0 0 0 ];
% latency change    = 0.428571
% throughput change = 0.756438
Traffic 1 Stat
%=================================
% Average latency = 2
% Accepted packets = 0 at node 1 (avg = 0.00146843)
lat(4) = 2;
thru(4,:) = [ 0.0352423 0 0 0 0 0 0 0 0 0 0 0 0 0 0 0 0 0 0 0 0 0 0 0 ];
% latency change    = 0.75
% throughput change = 1
----------------------------Interconnect-DETAILS---------------------------------=======Traffic[0]class0 ======
Traffic[0]class0Overall average latency = 3.25 (2 samples)
Traffic[0]class0Overall average accepted rate = 0.00218374 (2 samples)
Traffic[0]class0Overall min accepted rate = 0 (2 samples)
traffic_manager/latency_stat_0_freq = [ 0 2 2 1 0 1 1 0 1 0 0 0 0 0 0 0 0 0 0 0 0 0 0 0 0 0 0 0 0 0 0 0 0 0 0 0 0 0 0 0 0 0 0 0 0 0 0 0 0 0 0 0 0 0 0 0 0 0 0 0 0 0 0 0 0 0 0 0 0 0 0 0 0 0 0 0 0 0 0 0 0 0 0 0 0 0 0 0 0 0 0 0 0 0 0 0 0 0 0 0 0 0 0 0 0 0 0 0 0 0 0 0 0 0 0 0 0 0 0 0 0 0 0 0 0 0 0 0 0 0 0 0 0 0 0 0 0 0 0 0 0 0 0 0 0 0 0 0 0 0 0 0 0 0 0 0 0 0 0 0 0 0 0 0 0 0 0 0 0 0 0 0 0 0 0 0 0 0 0 0 0 0 0 0 0 0 0 0 0 0 0 0 0 0 0 0 0 0 0 0 0 0 0 0 0 0 0 0 0 0 0 0 0 0 0 0 0 0 0 0 0 0 0 0 0 0 0 0 0 0 0 0 0 0 0 0 0 0 0 0 0 0 0 0 0 0 0 0 0 0 0 0 0 0 0 0 0 0 0 0 0 0 0 0 0 0 0 0 0 0 0 0 0 0 0 0 0 0 0 0 0 0 0 0 0 0 0 0 0 0 0 0 0 0 0 0 0 0 0 0 0 0 0 0 0 0 0 0 0 0 0 0 0 0 0 0 0 0 0 0 0 0 0 0 0 0 0 0 0 0 0 0 0 0 0 0 0 0 0 0 0 0 0 0 0 0 0 0 0 0 0 0 0 0 0 0 0 0 0 0 0 0 0 0 0 0 0 0 0 0 0 0 0 0 0 0 0 0 0 0 0 0 0 0 0 0 0 0 0 0 0 0 0 0 0 0 0 0 0 0 0 0 0 0 0 0 0 0 0 0 0 0 0 0 0 0 0 0 0 0 0 0 0 0 0 0 0 0 0 0 0 0 0 0 0 0 0 0 0 0 0 0 0 0 0 0 0 0 0 0 0 0 0 0 0 0 0 0 0 0 0 0 0 0 0 0 0 0 0 0 0 0 0 0 0 0 0 0 0 0 0 0 0 0 0 0 0 0 0 0 0 0 0 0 0 0 0 0 0 0 0 0 0 0 0 0 0 0 0 0 0 0 0 0 0 0 0 0 0 0 0 0 0 0 0 0 0 0 0 0 0 0 0 0 0 0 0 0 0 0 0 0 0 0 0 0 0 0 0 0 0 0 0 0 0 0 0 0 0 0 0 0 0 0 0 0 0 0 0 0 0 0 0 0 0 0 0 0 0 0 0 0 0 0 0 0 0 0 0 0 0 0 0 0 0 0 0 0 0 0 0 0 0 0 0 0 0 0 0 0 0 0 0 0 0 0 0 0 0 0 0 0 0 0 0 0 0 0 0 0 0 0 0 0 0 0 0 0 0 0 0 0 0 0 0 0 0 0 0 0 0 0 0 0 0 0 0 0 0 0 0 0 0 0 0 0 0 0 0 0 0 0 0 0 0 0 0 0 0 0 0 0 0 0 0 0 0 0 0 0 0 0 0 0 0 0 0 0 0 0 0 0 0 0 0 0 0 0 0 0 0 0 0 0 0 0 0 0 0 0 0 0 0 0 0 0 0 0 0 0 0 0 0 0 0 0 0 0 0 0 0 0 0 0 0 0 0 0 0 0 0 0 0 0 0 0 0 0 0 0 0 0 0 0 0 0 0 0 0 0 0 0 0 0 0 0 0 0 0 0 0 0 0 0 0 0 0 0 0 0 0 0 0 0 0 0 0 0 0 0 0 0 0 0 0 0 0 0 0 0 0 0 0 0 0 0 0 0 0 0 0 0 0 0 0 0 0 0 0 0 0 0 0 0 0 0 0 0 0 0 0 0 0 0 0 0 0 0 0 0 0 0 0 0 0 0 0 0 0 0 0 0 0 0 0 0 0 0 0 0 0 0 0 0 0 0 0 0 0 0 0 0 0 0 0 0 0 0 0 0 0 0 0 0 0 0 0 0 0 0 0 0 0 0 0 0 0 0 0 0 0 0 0 0 0 0 0 0 0 0 0 0 0 0 0 0 0 0 0 0 0 0 0 0 0 0 0 0 0 0 0 0 0 0 0 0 0 0 0 0 0 0 0 0 0 0 0 0 0 0 0 0 0 0 0 0 0 0 0 0 0 0 0 0 0 0 0 0 0 0 0 0 0 0 0 0 0 0 0 0 0 0 0 0 0 0 0 0 0 0 ];
Traffic[0]class1Average hops = 1 (12 samples)
traffic_manager/hop_stats_freq = [ 0 12 0 0 0 0 0 0 0 0 0 0 0 0 0 0 0 0 0 0 ];
=======Traffic[1]class0 ======
Traffic[1]class0Overall average latency = 2 (2 samples)
Traffic[1]class0Overall average accepted rate = 0.00109187 (2 samples)
Traffic[1]class0Overall min accepted rate = 0 (2 samples)
traffic_manager/latency_stat_0_freq = [ 0 0 4 0 0 0 0 0 0 0 0 0 0 0 0 0 0 0 0 0 0 0 0 0 0 0 0 0 0 0 0 0 0 0 0 0 0 0 0 0 0 0 0 0 0 0 0 0 0 0 0 0 0 0 0 0 0 0 0 0 0 0 0 0 0 0 0 0 0 0 0 0 0 0 0 0 0 0 0 0 0 0 0 0 0 0 0 0 0 0 0 0 0 0 0 0 0 0 0 0 0 0 0 0 0 0 0 0 0 0 0 0 0 0 0 0 0 0 0 0 0 0 0 0 0 0 0 0 0 0 0 0 0 0 0 0 0 0 0 0 0 0 0 0 0 0 0 0 0 0 0 0 0 0 0 0 0 0 0 0 0 0 0 0 0 0 0 0 0 0 0 0 0 0 0 0 0 0 0 0 0 0 0 0 0 0 0 0 0 0 0 0 0 0 0 0 0 0 0 0 0 0 0 0 0 0 0 0 0 0 0 0 0 0 0 0 0 0 0 0 0 0 0 0 0 0 0 0 0 0 0 0 0 0 0 0 0 0 0 0 0 0 0 0 0 0 0 0 0 0 0 0 0 0 0 0 0 0 0 0 0 0 0 0 0 0 0 0 0 0 0 0 0 0 0 0 0 0 0 0 0 0 0 0 0 0 0 0 0 0 0 0 0 0 0 0 0 0 0 0 0 0 0 0 0 0 0 0 0 0 0 0 0 0 0 0 0 0 0 0 0 0 0 0 0 0 0 0 0 0 0 0 0 0 0 0 0 0 0 0 0 0 0 0 0 0 0 0 0 0 0 0 0 0 0 0 0 0 0 0 0 0 0 0 0 0 0 0 0 0 0 0 0 0 0 0 0 0 0 0 0 0 0 0 0 0 0 0 0 0 0 0 0 0 0 0 0 0 0 0 0 0 0 0 0 0 0 0 0 0 0 0 0 0 0 0 0 0 0 0 0 0 0 0 0 0 0 0 0 0 0 0 0 0 0 0 0 0 0 0 0 0 0 0 0 0 0 0 0 0 0 0 0 0 0 0 0 0 0 0 0 0 0 0 0 0 0 0 0 0 0 0 0 0 0 0 0 0 0 0 0 0 0 0 0 0 0 0 0 0 0 0 0 0 0 0 0 0 0 0 0 0 0 0 0 0 0 0 0 0 0 0 0 0 0 0 0 0 0 0 0 0 0 0 0 0 0 0 0 0 0 0 0 0 0 0 0 0 0 0 0 0 0 0 0 0 0 0 0 0 0 0 0 0 0 0 0 0 0 0 0 0 0 0 0 0 0 0 0 0 0 0 0 0 0 0 0 0 0 0 0 0 0 0 0 0 0 0 0 0 0 0 0 0 0 0 0 0 0 0 0 0 0 0 0 0 0 0 0 0 0 0 0 0 0 0 0 0 0 0 0 0 0 0 0 0 0 0 0 0 0 0 0 0 0 0 0 0 0 0 0 0 0 0 0 0 0 0 0 0 0 0 0 0 0 0 0 0 0 0 0 0 0 0 0 0 0 0 0 0 0 0 0 0 0 0 0 0 0 0 0 0 0 0 0 0 0 0 0 0 0 0 0 0 0 0 0 0 0 0 0 0 0 0 0 0 0 0 0 0 0 0 0 0 0 0 0 0 0 0 0 0 0 0 0 0 0 0 0 0 0 0 0 0 0 0 0 0 0 0 0 0 0 0 0 0 0 0 0 0 0 0 0 0 0 0 0 0 0 0 0 0 0 0 0 0 0 0 0 0 0 0 0 0 0 0 0 0 0 0 0 0 0 0 0 0 0 0 0 0 0 0 0 0 0 0 0 0 0 0 0 0 0 0 0 0 0 0 0 0 0 0 0 0 0 0 0 0 0 0 0 0 0 0 0 0 0 0 0 0 0 0 0 0 0 0 0 0 0 0 0 0 0 0 0 0 0 0 0 0 0 0 0 0 0 0 0 0 0 0 0 0 0 0 0 0 0 0 0 0 0 0 0 0 0 0 0 0 0 0 0 0 0 0 0 0 0 0 0 0 0 0 0 0 0 0 0 0 0 0 0 0 0 0 0 0 0 0 0 0 0 0 0 0 0 0 0 0 0 0 0 0 0 0 0 0 0 0 0 0 0 0 0 0 0 0 0 0 0 0 0 0 0 0 0 0 0 0 0 0 0 0 0 0 0 0 0 0 0 0 0 0 0 0 0 0 0 0 0 0 0 0 0 0 0 0 0 0 0 0 0 0 0 0 0 0 0 0 0 0 0 0 0 0 0 0 0 0 0 0 ];
Traffic[1]class1Average hops = 1 (6 samples)
traffic_manager/hop_stats_freq = [ 0 6 0 0 0 0 0 0 0 0 0 0 0 0 0 0 0 0 0 0 ];
----------------------------END-of-Interconnect-DETAILS-------------------------(LOGB2)Latency DRAM[0] Stats for mrqq
Min 0.000000 Max 0.000000 Average 0.000000 
mrqq_freq = [ 4 0 0 0 0 0 0 0 0 0 0 0 0 0 0 0 0 0 0 0 0 0 0 0 0 0 0 0 0 0 0 0 ];
(LOGB2)Latency DRAM[0] Stats for rwq
Min 0.000000 Max 31.000000 Average 1.273560 
rwq_freq = [ 4 750 3 0 0 0 0 0 0 0 0 0 0 0 0 0 0 0 0 0 0 0 0 0 0 0 0 0 0 0 0 7 ];
(LOGB2)Latency DRAM[1] Stats for mrqq
Min 0.000000 Max 0.000000 Average 0.000000 
mrqq_freq = [ 4 0 0 0 0 0 0 0 0 0 0 0 0 0 0 0 0 0 0 0 0 0 0 0 0 0 0 0 0 0 0 0 ];
(LOGB2)Latency DRAM[1] Stats for rwq
Min 0.000000 Max 31.000000 Average 1.395288 
rwq_freq = [ 4 744 6 0 0 0 0 0 0 0 0 0 0 0 0 0 0 0 0 0 0 0 0 0 0 0 0 0 0 0 0 10 ];
(LOGB2)Latency DRAM[2] Stats for mrqq
Min 0.000000 Max 0.000000 Average 0.000000 
mrqq_freq = [ 4 0 0 0 0 0 0 0 0 0 0 0 0 0 0 0 0 0 0 0 0 0 0 0 0 0 0 0 0 0 0 0 ];
(LOGB2)Latency DRAM[2] Stats for rwq
Min 0.000000 Max 31.000000 Average 1.395288 
rwq_freq = [ 4 744 6 0 0 0 0 0 0 0 0 0 0 0 0 0 0 0 0 0 0 0 0 0 0 0 0 0 0 0 0 10 ];
(LOGB2)Latency DRAM[3] Stats for mrqq
 was never updated!
(LOGB2)Latency DRAM[3] Stats for rwq
Min 0.000000 Max 31.000000 Average 1.395288 
rwq_freq = [ 4 744 6 0 0 0 0 0 0 0 0 0 0 0 0 0 0 0 0 0 0 0 0 0 0 0 0 0 0 0 0 10 ];
(LOGB2)Latency DRAM[4] Stats for mrqq
 was never updated!
(LOGB2)Latency DRAM[4] Stats for rwq
Min 0.000000 Max 31.000000 Average 1.395288 
rwq_freq = [ 4 744 6 0 0 0 0 0 0 0 0 0 0 0 0 0 0 0 0 0 0 0 0 0 0 0 0 0 0 0 0 10 ];
(LOGB2)Latency DRAM[5] Stats for mrqq
 was never updated!
(LOGB2)Latency DRAM[5] Stats for rwq
Min 0.000000 Max 31.000000 Average 1.395288 
rwq_freq = [ 4 744 6 0 0 0 0 0 0 0 0 0 0 0 0 0 0 0 0 0 0 0 0 0 0 0 0 0 0 0 0 10 ];
(LOGB2)Latency DRAM[6] Stats for mrqq
 was never updated!
(LOGB2)Latency DRAM[6] Stats for rwq
Min 0.000000 Max 31.000000 Average 1.395288 
rwq_freq = [ 4 744 6 0 0 0 0 0 0 0 0 0 0 0 0 0 0 0 0 0 0 0 0 0 0 0 0 0 0 0 0 10 ];
(LOGB2)Latency DRAM[7] Stats for mrqq
 was never updated!
(LOGB2)Latency DRAM[7] Stats for rwq
Min 0.000000 Max 31.000000 Average 1.395288 
rwq_freq = [ 4 744 6 0 0 0 0 0 0 0 0 0 0 0 0 0 0 0 0 0 0 0 0 0 0 0 0 0 0 0 0 10 ];
Queue Length DRAM[0] Stats for mrqq_length
Min 0.000000 Max 1.000000 Average 0.017016 
mrqq_length_freq = [ 751 13 0 0 0 0 0 0 0 0 0 0 0 0 0 0 0 0 0 0 0 0 0 0 0 0 0 0 0 0 0 0 ];
Queue Length DRAM[1] Stats for mrqq_length
Min 0.000000 Max 3.000000 Average 0.060209 
mrqq_length_freq = [ 743 6 5 10 0 0 0 0 0 0 0 0 0 0 0 0 0 0 0 0 0 0 0 0 0 0 0 0 0 0 0 0 ];
Queue Length DRAM[2] Stats for mrqq_length
Min 0.000000 Max 1.000000 Average 0.003927 
mrqq_length_freq = [ 761 3 0 0 0 0 0 0 0 0 0 0 0 0 0 0 0 0 0 0 0 0 0 0 0 0 0 0 0 0 0 0 ];
Queue Length DRAM[3] Stats for mrqq_length
Min 0.000000 Max 0.000000 Average 0.000000 
mrqq_length_freq = [ 764 0 0 0 0 0 0 0 0 0 0 0 0 0 0 0 0 0 0 0 0 0 0 0 0 0 0 0 0 0 0 0 ];
Queue Length DRAM[4] Stats for mrqq_length
Min 0.000000 Max 0.000000 Average 0.000000 
mrqq_length_freq = [ 764 0 0 0 0 0 0 0 0 0 0 0 0 0 0 0 0 0 0 0 0 0 0 0 0 0 0 0 0 0 0 0 ];
Queue Length DRAM[5] Stats for mrqq_length
Min 0.000000 Max 0.000000 Average 0.000000 
mrqq_length_freq = [ 764 0 0 0 0 0 0 0 0 0 0 0 0 0 0 0 0 0 0 0 0 0 0 0 0 0 0 0 0 0 0 0 ];
Queue Length DRAM[6] Stats for mrqq_length
Min 0.000000 Max 0.000000 Average 0.000000 
mrqq_length_freq = [ 764 0 0 0 0 0 0 0 0 0 0 0 0 0 0 0 0 0 0 0 0 0 0 0 0 0 0 0 0 0 0 0 ];
Queue Length DRAM[7] Stats for mrqq_length
Min 0.000000 Max 0.000000 Average 0.000000 
mrqq_length_freq = [ 764 0 0 0 0 0 0 0 0 0 0 0 0 0 0 0 0 0 0 0 0 0 0 0 0 0 0 0 0 0 0 0 ];


gpgpu_simulation_time = 0 days, 0 hrs, 0 min, 1 sec (1 sec)
gpgpu_simulation_rate = 1952 (inst/sec)
gpgpu_simulation_rate = 231 (cycle/sec)
GPGPU-Sim PTX: Execution warning: ignoring call to "cudaError_t cudaEventSynchronize(cudaEvent_t)"
Kernel Execution Time: 0.000000 (ms)
GPGPU-Sim PTX: cudaMemcpy(): devPtr = 0x2f23d60
GPGPU-Sim PTX: copying 256 bytes from GPU[0x10000200] to CPU[0x2f23d60] ... done.
Test PASSED
