

        *** GPGPU-Sim version 2.1.1b (beta) ***


GPGPU-Sim PTX: __cudaRegisterFunction _Z21binomialOptionsKernelv : 0x4050f0
GPGPU-Sim PTX: __cudaRegisterVar: hostVar = 0xe38d40; deviceAddress = d_OptionData; deviceName = d_OptionData
GPGPU-Sim PTX: __cudaRegisterVar: Registering const memory space of 40960 bytes
GPGPU-Sim PTX registering constant d_OptionData (40960 bytes) to name mapping
GPGPU-Sim PTX: __cudaRegisterVar: hostVar = 0xe42d40; deviceAddress = d_CallValue; deviceName = d_CallValue
GPGPU-Sim PTX: __cudaRegisterVar: Registering const memory space of 4096 bytes
GPGPU-Sim PTX registering global d_CallValue hostVar to name mapping
GPGPU-Sim PTX: __cudaRegisterVar: hostVar = 0xe43d40; deviceAddress = d_CallBuffer; deviceName = d_CallBuffer
GPGPU-Sim PTX: __cudaRegisterVar: Registering const memory space of 16908288 bytes
GPGPU-Sim PTX registering global d_CallBuffer hostVar to name mapping
GPGPU-Sim PTX: __cudaRegisterFunction _Z21binomialOptionsKernelv : 0x404bf0
GPGPU-Sim PTX: __cudaRegisterVar: hostVar = 0x622ce0; deviceAddress = d_OptionData; deviceName = d_OptionData
GPGPU-Sim PTX: __cudaRegisterVar: Registering const memory space of 20480 bytes
GPGPU-Sim PTX registering constant d_OptionData (20480 bytes) to name mapping
GPGPU-Sim PTX: __cudaRegisterVar: hostVar = 0x627ce0; deviceAddress = d_CallValue; deviceName = d_CallValue
GPGPU-Sim PTX: __cudaRegisterVar: Registering const memory space of 4096 bytes
GPGPU-Sim PTX registering global d_CallValue hostVar to name mapping
GPGPU-Sim PTX: __cudaRegisterVar: hostVar = 0x628ce0; deviceAddress = d_CallBuffer; deviceName = d_CallBuffer
GPGPU-Sim PTX: __cudaRegisterVar: Registering const memory space of 8454144 bytes
GPGPU-Sim PTX registering global d_CallBuffer hostVar to name mapping
Using single precision...
GPGPU-Sim PTX: simulation mode 0 (can change with PTX_SIM_MODE_FUNC environment variable:
               1=functional simulation only, 0=detailed performance simulator)
GPGPU-Sim: Configuration options:

-network_mode                           1 # Interconnection network mode
-inter_config_file                   mesh # Interconnection network config file
-save_embedded_ptx                      1 # saves ptx files embedded in binary as <n>.ptx
-gpgpu_simd_model                       1 # 0 = no recombination, 1 = post-dominator, 2 = MIMD, 3 = dynamic warp formation
-gpgpu_dram_scheduler                    1 # 0 = fifo (default), 1 = fast ideal
-gpgpu_max_cycle                        0 # terminates gpu simulation early (0 = no limit)
-gpgpu_max_insn                         0 # terminates gpu simulation early (0 = no limit)
-gpgpu_tex_cache:l1            512:64:2:L # per-shader L1 texture cache  (READ-ONLY) config, i.e., {<nsets>:<linesize>:<assoc>:<repl>|none}
-gpgpu_const_cache:l1            64:64:2:L # per-shader L1 constant memory cache  (READ-ONLY) config, i.e., {<nsets>:<linesize>:<assoc>:<repl>|none}
-gpgpu_no_dl1                           1 # no dl1 cache (voids -gpgpu_cache:dl1 option)
-gpgpu_cache:dl1               128:64:4:L # shader L1 data cache config, i.e., {<nsets>:<bsize>:<assoc>:<repl>|none}
-gpgpu_cache:dl2                     NULL # unified banked L2 data cache config, i.e., {<nsets>:<bsize>:<assoc>:<repl>|none}; disabled by default
-gpgpu_perfect_mem                      0 # enable perfect memory mode (no cache miss)
-gpgpu_shader_core_pipeline           1024:32:32 # shader core pipeline config, i.e., {<nthread>:<warpsize>:<pipe_simd_width>}
-gpgpu_shader_registers                16768 # Number of registers per shader core. Limits number of concurrent CTAs. (default 8192)
-gpgpu_shader_cta                       8 # Maximum number of concurrent CTAs in shader (default 8)
-gpgpu_n_shader                        28 # number of shaders in gpu
-gpgpu_n_mem                            8 # number of memory modules (e.g. memory controllers) in gpu
-gpgpu_n_mem_per_ctrlr                    2 # number of memory chips per memory controller
-gpgpu_runtime_stat               10000:0 # display runtime statistics such as dram utilization {<freq>:<flag>}
-gpgpu_dwf_heuristic                    0 # DWF scheduling heuristic: 0 = majority, 1 = minority, 2 = timestamp, 3 = pdom priority, 4 = pc-based, 5 = max-heap
-gpgpu_reg_bankconflict                    0 # Check for bank conflict in the pipeline
-gpgpu_dwf_regbk                        1 # Have dwf scheduler to avoid bank conflict
-gpgpu_memlatency_stat                    0 # track and display latency statistics 0x2 enables MC, 0x4 enables queue logs
-gpgpu_mshr_per_thread                    1 # Number of MSHRs per thread
-gpgpu_interwarp_mshr_merge                    6 # interwarp coalescing
-gpgpu_dram_sched_queue_size                   32 # 0 = unlimited (default); # entries per chip
-gpgpu_dram_buswidth                    4 # default = 4 bytes (8 bytes per cycle at DDR)
-gpgpu_dram_burst_length                    4 # Burst length of each DRAM request (default = 4 DDR cycle)
-gpgpu_dram_timing_opt 4:2:8:12:21:13:34:9:4:5 # DRAM timing parameters = {nbk:tCCD:tRRD:tRCD:tRAS:tRP:tRC:CL:WL:tWTR}
-gpgpu_mem_address_mask                    1 # 0 = old addressing mask, 1 = new addressing mask, 2 = new add. mask + flipped bank sel and chip sel bits
-gpgpu_flush_cache                      0 # Flush cache at the end of each kernel call
-gpgpu_l2_readoverwrite                    0 # Prioritize read requests over write requests for L2
-gpgpu_pre_mem_stages                    1 # default = 0 pre-memory pipeline stages
-gpgpu_no_divg_load                     0 # Don't allow divergence on load
-gpgpu_dwf_hw                        32:2 # dynamic warp formation hw config, i.e., {<#LUT_entries>:<associativity>|none}
-gpgpu_thread_swizzling                    0 # Thread Swizzling (1=on, 0=off)
-gpgpu_strict_simd_wrbk                    0 # Applying Strick SIMD WriteBack Stage (1=on, 0=off)
-gpgpu_shmem_size                   16384 # Size of shared memory per shader core (default 16kB)
-gpgpu_shmem_bkconflict                    1 # Turn on bank conflict check for shared memory
-gpgpu_shmem_pipe_speedup                    1 # Number of groups each warp is divided for shared memory bank conflict check
-gpgpu_L2_queue         0:0:0:0:0:0:10:10 # L2 data cache queue length and latency config
-gpgpu_cache_wt_through                    0 # L1 cache become write through (1=on, 0=off)
-gpgpu_deadlock_detect                    1 # Stop the simulation at deadlock (1=on (default), 0=off)
-gpgpu_cache_bkconflict                    1 # Turn on bank conflict check for L1 cache access
-gpgpu_n_cache_bank                     1 # Number of banks in L1 cache, also for memory coalescing stall
-gpgpu_warpdistro_shader                   -1 # Specify which shader core to collect the warp size distribution from
-gpgpu_pdom_sched_type                    8 # 0 = first ready warp found, 1 = random, 8 = loose round robin
-gpgpu_spread_blocks_across_cores                    1 # Spread block-issuing across all cores instead of filling up core by core
-gpgpu_cuda_sim                         1 # use PTX instruction set
-gpgpu_ptx_instruction_classification                    0 # if enabled will classify ptx instruction types per kernel (Max 255 kernels now)
-gpgpu_ptx_sim_mode                     0 # Select between Performance (default) or Functional simulation (1)
-gpgpu_clock_domains 500.0:2000.0:2000.0:2000.0 # Clock Domain Frequencies in MhZ {<Core Clock>:<ICNT Clock>:<L2 Clock>:<DRAM Clock>}
-gpgpu_shmem_port_per_bank                    2 # Number of access processed by a shared memory bank per cycle (default = 2)
-gpgpu_cache_port_per_bank                    2 # Number of access processed by a cache bank per cycle (default = 2)
-gpgpu_const_port_per_bank                    2 # Number of access processed by a constant cache bank per cycle (default = 2)
-gpgpu_cflog_interval                    0 # Interval between each snapshot in control flow logger
-gpgpu_partial_write_mask                    1 # use partial write mask to filter memory requests <1>No extra reads(use this!)<2>extra reads generated for partial chunks
-gpu_concentration                      1 # Number of shader cores per interconnection port (default = 1)
-gpgpu_local_mem_map                    1 # Mapping from local memory space address to simulated GPU physical address space (default = 1)
-pipetrace_out              pipetrace.txt # specifies file to output pipetrace to
-pipetrace                              1 # Turns pipetrace on/off
-gpgpu_mem_addr_mapping                 NULL # mapping memory address to dram model {dramid@<start bit>;<memory address map>}
-visualizer_enabled                     1 # Turn on visualizer output (1=On, 0=Off)
-visualizer_outputfile                 NULL # Specifies the output log file for visualizer
-visualizer_zlevel                      6 # Compression level of the visualizer output log (0=no comp, 9=highest)
-enable_ptx_file_line_stats                    1 # Turn on PTX source line statistic profiling. (1 = On)
-ptx_line_stats_filename gpgpu_inst_stats.txt # Output file for PTX source line statistics.
32 28 1024 917504
28672
addr_dec_mask[CHIP]  = 000000000000e000 	high:16 low:13
addr_dec_mask[BK]    = 0000000000001800 	high:13 low:11
addr_dec_mask[ROW]   = 000000003fff0000 	high:30 low:16
addr_dec_mask[COL]   = 00000000000007ff 	high:11 low:0
addr_dec_mask[BURST] = 000000000000000f 	high:4 low:0
*** Initializing Memory Statistics ***
nodemap
0 
1 2 4 5 6 8 
9 11 13 14 15 16 
17 18 19 20 21 22 
24 26 27 29 30 31 
33 34 35 3 7 10 
12 23 25 28 32 GPU performance model initialization complete.
GPGPU-Sim PTX: USING EMBEDDED .ptx files...
GPGPU-Sim PTX: allocating constant region for "d_OptionData" from 0x100 to 0xa100 (global memory space) 1
GPGPU-Sim PTX: allocating global region for "d_CallValue" from 0x14000 to 0x15000 (global memory space)
GPGPU-Sim PTX: allocating global region for "d_CallBuffer" from 0x15000 to 0x1035000 (global memory space)
GPGPU-Sim PTX: parsing function _Z21binomialOptionsKernelv
GPGPU-Sim PTX: allocating shared region for "__cuda_callB16953344" from 0x100 to 0x900 (shared memory space)
GPGPU-Sim PTX: allocating shared region for "__cuda_callA16955392" from 0x1000 to 0x1800 (shared memory space)
GPGPU-Sim PTX: instruction assembly for function '_Z21binomialOptionsKernelv'...   done.
GPGPU-Sim PTX: Finding postdominators for '_Z21binomialOptionsKernelv'...
GPGPU-Sim PTX: Finding immediate postdominators for '_Z21binomialOptionsKernelv'...
GPGPU-Sim PTX: finished parsing EMBEDDED .ptx file _1.ptx
GPGPU-Sim PTX: extracting embedded .ptx to temporary file "_ptx_CHk4Ty"
GPGPU-Sim PTX: generating ptxinfo using "ptxas -v _ptx2_Yzg6ct --output-file /dev/null 2> _ptx_CHk4Tyinfo"
GPGPU-Sim PTX: Kernel _Z21binomialOptionsKernelv
GPGPU-Sim PTX: removing ptxinfo using "rm -f _ptx_CHk4Ty _ptx2_Yzg6ct _ptx_CHk4Tyinfo"
GPGPU-Sim PTX: loading global with explicit initializers...  done.
GPGPU-Sim PTX: loading constants with explicit initializers...  done.
GPGPU-Sim PTX: allocating constant region for "d_OptionData" from 0x100 to 0x5100 (global memory space) 2
GPGPU-Sim PTX: allocating global region for "d_CallValue" from 0xa000 to 0xb000 (global memory space)
GPGPU-Sim PTX: allocating global region for "d_CallBuffer" from 0xb000 to 0x81b000 (global memory space)
GPGPU-Sim PTX: parsing function _Z21binomialOptionsKernelv
GPGPU-Sim PTX: allocating shared region for "__cuda_callB8478720" from 0x100 to 0x500 (shared memory space)
GPGPU-Sim PTX: allocating shared region for "__cuda_callA8479744" from 0x800 to 0xc00 (shared memory space)
GPGPU-Sim PTX: instruction assembly for function '_Z21binomialOptionsKernelv'...   done.
GPGPU-Sim PTX: Finding postdominators for '_Z21binomialOptionsKernelv'...
GPGPU-Sim PTX: Finding immediate postdominators for '_Z21binomialOptionsKernelv'...
GPGPU-Sim PTX: finished parsing EMBEDDED .ptx file _2.ptx
GPGPU-Sim PTX: extracting embedded .ptx to temporary file "_ptx_REQiOn"
GPGPU-Sim PTX: generating ptxinfo using "ptxas -v _ptx2_gEb6pi --output-file /dev/null 2> _ptx_REQiOninfo"
GPGPU-Sim PTX: Kernel _Z21binomialOptionsKernelv
GPGPU-Sim PTX: removing ptxinfo using "rm -f _ptx_REQiOn _ptx2_gEb6pi _ptx_REQiOninfo"
GPGPU-Sim PTX: loading global with explicit initializers...  done.
GPGPU-Sim PTX: loading constants with explicit initializers...  done.
GPGPU-Sim PTX: Program parsing completed (max 179 registers used per thread).
Generating input data...
Running GPU binomial tree...
GPGPU-Sim PTX: cudaMemcpyToSymbol: symbol = 0x622ce0
GPGPU-Sim PTX: starting gpgpu_ptx_sim_memcpy_symbol with hostVar 0x0x622ce0
GPGPU-Sim PTX: gpgpu_ptx_sim_memcpy_symbol: Found PTX symbol w/ hostVar=0x622ce0
GPGPU-Sim PTX: gpgpu_ptx_sim_memcpy_symbol: copying 10240 bytes  to  symbol d_OptionData+0 @0x5000 ...



GPGPU-Sim PTX: cudaLaunch for 0x404bf0 (mode=performance simulation)
GPGPU-Sim PTX: Launching kernel '_Z21binomialOptionsKernelv' gridDim= (512,1,1) blockDim = (256,1,1); ntuid=1
GPGPU-Sim uArch: clock freqs: 500000000.000000:2000000000.000000:2000000000.000000:2000000000.000000
GPGPU-Sim uArch: clock periods: 0.00000000200000000000:0.00000000050000000000:0.00000000050000000000:0.00000000050000000000
Reconvergence Pairs for _Z21binomialOptionsKernelv
233	288
283	284
284	288
294	373
314	324
327	358
333	343
345	355
357	358
360	370
372	373
376	377
379	385
CTA/core = 4, limited by: threads regs
Shader 0 initializing CTA #0 with hw tids from 0 to 256 @(1,0) shdr->not_completed = 0
Shader 1 initializing CTA #0 with hw tids from 0 to 256 @(1,0) shdr->not_completed = 0
Shader 2 initializing CTA #0 with hw tids from 0 to 256 @(1,0) shdr->not_completed = 0
Shader 3 initializing CTA #0 with hw tids from 0 to 256 @(1,0) shdr->not_completed = 0
Shader 4 initializing CTA #0 with hw tids from 0 to 256 @(1,0) shdr->not_completed = 0
Shader 5 initializing CTA #0 with hw tids from 0 to 256 @(1,0) shdr->not_completed = 0
Shader 6 initializing CTA #0 with hw tids from 0 to 256 @(1,0) shdr->not_completed = 0
Shader 7 initializing CTA #0 with hw tids from 0 to 256 @(1,0) shdr->not_completed = 0
Shader 8 initializing CTA #0 with hw tids from 0 to 256 @(1,0) shdr->not_completed = 0
Shader 9 initializing CTA #0 with hw tids from 0 to 256 @(1,0) shdr->not_completed = 0
Shader 10 initializing CTA #0 with hw tids from 0 to 256 @(1,0) shdr->not_completed = 0
Shader 11 initializing CTA #0 with hw tids from 0 to 256 @(1,0) shdr->not_completed = 0
Shader 12 initializing CTA #0 with hw tids from 0 to 256 @(1,0) shdr->not_completed = 0
Shader 13 initializing CTA #0 with hw tids from 0 to 256 @(1,0) shdr->not_completed = 0
Shader 14 initializing CTA #0 with hw tids from 0 to 256 @(1,0) shdr->not_completed = 0
Shader 15 initializing CTA #0 with hw tids from 0 to 256 @(1,0) shdr->not_completed = 0
Shader 16 initializing CTA #0 with hw tids from 0 to 256 @(1,0) shdr->not_completed = 0
Shader 17 initializing CTA #0 with hw tids from 0 to 256 @(1,0) shdr->not_completed = 0
Shader 18 initializing CTA #0 with hw tids from 0 to 256 @(1,0) shdr->not_completed = 0
Shader 19 initializing CTA #0 with hw tids from 0 to 256 @(1,0) shdr->not_completed = 0
Shader 20 initializing CTA #0 with hw tids from 0 to 256 @(1,0) shdr->not_completed = 0
Shader 21 initializing CTA #0 with hw tids from 0 to 256 @(1,0) shdr->not_completed = 0
Shader 22 initializing CTA #0 with hw tids from 0 to 256 @(1,0) shdr->not_completed = 0
Shader 23 initializing CTA #0 with hw tids from 0 to 256 @(1,0) shdr->not_completed = 0
Shader 24 initializing CTA #0 with hw tids from 0 to 256 @(1,0) shdr->not_completed = 0
Shader 25 initializing CTA #0 with hw tids from 0 to 256 @(1,0) shdr->not_completed = 0
Shader 26 initializing CTA #0 with hw tids from 0 to 256 @(1,0) shdr->not_completed = 0
Shader 27 initializing CTA #0 with hw tids from 0 to 256 @(1,0) shdr->not_completed = 0
Shader 0 initializing CTA #1 with hw tids from 256 to 512 @(2,0) shdr->not_completed = 256
Shader 1 initializing CTA #1 with hw tids from 256 to 512 @(2,0) shdr->not_completed = 256
Shader 2 initializing CTA #1 with hw tids from 256 to 512 @(2,0) shdr->not_completed = 256
Shader 3 initializing CTA #1 with hw tids from 256 to 512 @(2,0) shdr->not_completed = 256
Shader 4 initializing CTA #1 with hw tids from 256 to 512 @(2,0) shdr->not_completed = 256
Shader 5 initializing CTA #1 with hw tids from 256 to 512 @(2,0) shdr->not_completed = 256
Shader 6 initializing CTA #1 with hw tids from 256 to 512 @(2,0) shdr->not_completed = 256
Shader 7 initializing CTA #1 with hw tids from 256 to 512 @(2,0) shdr->not_completed = 256
Shader 8 initializing CTA #1 with hw tids from 256 to 512 @(2,0) shdr->not_completed = 256
Shader 9 initializing CTA #1 with hw tids from 256 to 512 @(2,0) shdr->not_completed = 256
Shader 10 initializing CTA #1 with hw tids from 256 to 512 @(2,0) shdr->not_completed = 256
Shader 11 initializing CTA #1 with hw tids from 256 to 512 @(2,0) shdr->not_completed = 256
Shader 12 initializing CTA #1 with hw tids from 256 to 512 @(2,0) shdr->not_completed = 256
Shader 13 initializing CTA #1 with hw tids from 256 to 512 @(2,0) shdr->not_completed = 256
Shader 14 initializing CTA #1 with hw tids from 256 to 512 @(2,0) shdr->not_completed = 256
Shader 15 initializing CTA #1 with hw tids from 256 to 512 @(2,0) shdr->not_completed = 256
Shader 16 initializing CTA #1 with hw tids from 256 to 512 @(2,0) shdr->not_completed = 256
Shader 17 initializing CTA #1 with hw tids from 256 to 512 @(2,0) shdr->not_completed = 256
Shader 18 initializing CTA #1 with hw tids from 256 to 512 @(2,0) shdr->not_completed = 256
Shader 19 initializing CTA #1 with hw tids from 256 to 512 @(2,0) shdr->not_completed = 256
Shader 20 initializing CTA #1 with hw tids from 256 to 512 @(2,0) shdr->not_completed = 256
Shader 21 initializing CTA #1 with hw tids from 256 to 512 @(2,0) shdr->not_completed = 256
Shader 22 initializing CTA #1 with hw tids from 256 to 512 @(2,0) shdr->not_completed = 256
Shader 23 initializing CTA #1 with hw tids from 256 to 512 @(2,0) shdr->not_completed = 256
Shader 24 initializing CTA #1 with hw tids from 256 to 512 @(2,0) shdr->not_completed = 256
Shader 25 initializing CTA #1 with hw tids from 256 to 512 @(2,0) shdr->not_completed = 256
Shader 26 initializing CTA #1 with hw tids from 256 to 512 @(2,0) shdr->not_completed = 256
Shader 27 initializing CTA #1 with hw tids from 256 to 512 @(2,0) shdr->not_completed = 256
Shader 0 initializing CTA #2 with hw tids from 512 to 768 @(3,0) shdr->not_completed = 512
Shader 1 initializing CTA #2 with hw tids from 512 to 768 @(3,0) shdr->not_completed = 512
Shader 2 initializing CTA #2 with hw tids from 512 to 768 @(3,0) shdr->not_completed = 512
Shader 3 initializing CTA #2 with hw tids from 512 to 768 @(3,0) shdr->not_completed = 512
Shader 4 initializing CTA #2 with hw tids from 512 to 768 @(3,0) shdr->not_completed = 512
Shader 5 initializing CTA #2 with hw tids from 512 to 768 @(3,0) shdr->not_completed = 512
Shader 6 initializing CTA #2 with hw tids from 512 to 768 @(3,0) shdr->not_completed = 512
Shader 7 initializing CTA #2 with hw tids from 512 to 768 @(3,0) shdr->not_completed = 512
Shader 8 initializing CTA #2 with hw tids from 512 to 768 @(3,0) shdr->not_completed = 512
Shader 9 initializing CTA #2 with hw tids from 512 to 768 @(3,0) shdr->not_completed = 512
Shader 10 initializing CTA #2 with hw tids from 512 to 768 @(3,0) shdr->not_completed = 512
Shader 11 initializing CTA #2 with hw tids from 512 to 768 @(3,0) shdr->not_completed = 512
Shader 12 initializing CTA #2 with hw tids from 512 to 768 @(3,0) shdr->not_completed = 512
Shader 13 initializing CTA #2 with hw tids from 512 to 768 @(3,0) shdr->not_completed = 512
Shader 14 initializing CTA #2 with hw tids from 512 to 768 @(3,0) shdr->not_completed = 512
Shader 15 initializing CTA #2 with hw tids from 512 to 768 @(3,0) shdr->not_completed = 512
Shader 16 initializing CTA #2 with hw tids from 512 to 768 @(3,0) shdr->not_completed = 512
Shader 17 initializing CTA #2 with hw tids from 512 to 768 @(3,0) shdr->not_completed = 512
Shader 18 initializing CTA #2 with hw tids from 512 to 768 @(3,0) shdr->not_completed = 512
Shader 19 initializing CTA #2 with hw tids from 512 to 768 @(3,0) shdr->not_completed = 512
Shader 20 initializing CTA #2 with hw tids from 512 to 768 @(3,0) shdr->not_completed = 512
Shader 21 initializing CTA #2 with hw tids from 512 to 768 @(3,0) shdr->not_completed = 512
Shader 22 initializing CTA #2 with hw tids from 512 to 768 @(3,0) shdr->not_completed = 512
Shader 23 initializing CTA #2 with hw tids from 512 to 768 @(3,0) shdr->not_completed = 512
Shader 24 initializing CTA #2 with hw tids from 512 to 768 @(3,0) shdr->not_completed = 512
Shader 25 initializing CTA #2 with hw tids from 512 to 768 @(3,0) shdr->not_completed = 512
Shader 26 initializing CTA #2 with hw tids from 512 to 768 @(3,0) shdr->not_completed = 512
Shader 27 initializing CTA #2 with hw tids from 512 to 768 @(3,0) shdr->not_completed = 512
Shader 0 initializing CTA #3 with hw tids from 768 to 1024 @(4,0) shdr->not_completed = 768
Shader 1 initializing CTA #3 with hw tids from 768 to 1024 @(4,0) shdr->not_completed = 768
Shader 2 initializing CTA #3 with hw tids from 768 to 1024 @(4,0) shdr->not_completed = 768
Shader 3 initializing CTA #3 with hw tids from 768 to 1024 @(4,0) shdr->not_completed = 768
Shader 4 initializing CTA #3 with hw tids from 768 to 1024 @(4,0) shdr->not_completed = 768
Shader 5 initializing CTA #3 with hw tids from 768 to 1024 @(4,0) shdr->not_completed = 768
Shader 6 initializing CTA #3 with hw tids from 768 to 1024 @(4,0) shdr->not_completed = 768
Shader 7 initializing CTA #3 with hw tids from 768 to 1024 @(4,0) shdr->not_completed = 768
Shader 8 initializing CTA #3 with hw tids from 768 to 1024 @(4,0) shdr->not_completed = 768
Shader 9 initializing CTA #3 with hw tids from 768 to 1024 @(4,0) shdr->not_completed = 768
Shader 10 initializing CTA #3 with hw tids from 768 to 1024 @(4,0) shdr->not_completed = 768
Shader 11 initializing CTA #3 with hw tids from 768 to 1024 @(4,0) shdr->not_completed = 768
Shader 12 initializing CTA #3 with hw tids from 768 to 1024 @(4,0) shdr->not_completed = 768
Shader 13 initializing CTA #3 with hw tids from 768 to 1024 @(4,0) shdr->not_completed = 768
Shader 14 initializing CTA #3 with hw tids from 768 to 1024 @(4,0) shdr->not_completed = 768
Shader 15 initializing CTA #3 with hw tids from 768 to 1024 @(4,0) shdr->not_completed = 768
Shader 16 initializing CTA #3 with hw tids from 768 to 1024 @(4,0) shdr->not_completed = 768
Shader 17 initializing CTA #3 with hw tids from 768 to 1024 @(4,0) shdr->not_completed = 768
Shader 18 initializing CTA #3 with hw tids from 768 to 1024 @(4,0) shdr->not_completed = 768
Shader 19 initializing CTA #3 with hw tids from 768 to 1024 @(4,0) shdr->not_completed = 768
Shader 20 initializing CTA #3 with hw tids from 768 to 1024 @(4,0) shdr->not_completed = 768
Shader 21 initializing CTA #3 with hw tids from 768 to 1024 @(4,0) shdr->not_completed = 768
Shader 22 initializing CTA #3 with hw tids from 768 to 1024 @(4,0) shdr->not_completed = 768
Shader 23 initializing CTA #3 with hw tids from 768 to 1024 @(4,0) shdr->not_completed = 768
Shader 24 initializing CTA #3 with hw tids from 768 to 1024 @(4,0) shdr->not_completed = 768
Shader 25 initializing CTA #3 with hw tids from 768 to 1024 @(4,0) shdr->not_completed = 768
Shader 26 initializing CTA #3 with hw tids from 768 to 1024 @(4,0) shdr->not_completed = 768
Shader 27 initializing CTA #3 with hw tids from 768 to 1024 @(4,0) shdr->not_completed = 768
100000 instructions simulated : ctaid=(72,0,0) tid=(31,0,0)
200000 instructions simulated : ctaid=(45,0,0) tid=(95,0,0)
300000 instructions simulated : ctaid=(103,0,0) tid=(223,0,0)
400000 instructions simulated : ctaid=(49,0,0) tid=(255,0,0)
500000 instructions simulated : ctaid=(66,0,0) tid=(255,0,0)
600000 instructions simulated : ctaid=(111,0,0) tid=(63,0,0)
700000 instructions simulated : ctaid=(44,0,0) tid=(31,0,0)
800000 instructions simulated : ctaid=(89,0,0) tid=(255,0,0)
900000 instructions simulated : ctaid=(22,0,0) tid=(95,0,0)
1000000 instructions simulated : ctaid=(95,0,0) tid=(191,0,0)
1100000 instructions simulated : ctaid=(0,0,0) tid=(63,0,0)
1200000 instructions simulated : ctaid=(45,0,0) tid=(95,0,0)
1300000 instructions simulated : ctaid=(90,0,0) tid=(127,0,0)
1400000 instructions simulated : ctaid=(51,0,0) tid=(191,0,0)
1500000 instructions simulated : ctaid=(40,0,0) tid=(255,0,0)
1600000 instructions simulated : ctaid=(1,0,0) tid=(223,0,0)
1700000 instructions simulated : ctaid=(74,0,0) tid=(127,0,0)
1800000 instructions simulated : ctaid=(91,0,0) tid=(159,0,0)
1900000 instructions simulated : ctaid=(24,0,0) tid=(63,0,0)
2000000 instructions simulated : ctaid=(41,0,0) tid=(63,0,0)
2100000 instructions simulated : ctaid=(2,0,0) tid=(63,0,0)
2200000 instructions simulated : ctaid=(19,0,0) tid=(255,0,0)
2300000 instructions simulated : ctaid=(36,0,0) tid=(95,0,0)
2400000 instructions simulated : ctaid=(53,0,0) tid=(255,0,0)
2500000 instructions simulated : ctaid=(14,0,0) tid=(95,0,0)
2600000 instructions simulated : ctaid=(3,0,0) tid=(255,0,0)
2700000 instructions simulated : ctaid=(48,0,0) tid=(255,0,0)
2800000 instructions simulated : ctaid=(9,0,0) tid=(255,0,0)
2900000 instructions simulated : ctaid=(110,0,0) tid=(255,0,0)
3000000 instructions simulated : ctaid=(43,0,0) tid=(255,0,0)
3100000 instructions simulated : ctaid=(60,0,0) tid=(191,0,0)
3200000 instructions simulated : ctaid=(21,0,0) tid=(159,0,0)
3300000 instructions simulated : ctaid=(38,0,0) tid=(159,0,0)
3400000 instructions simulated : ctaid=(55,0,0) tid=(223,0,0)
3500000 instructions simulated : ctaid=(100,0,0) tid=(191,0,0)
3600000 instructions simulated : ctaid=(61,0,0) tid=(159,0,0)
3700000 instructions simulated : ctaid=(78,0,0) tid=(255,0,0)
3800000 instructions simulated : ctaid=(67,0,0) tid=(95,0,0)
3900000 instructions simulated : ctaid=(56,0,0) tid=(223,0,0)
4000000 instructions simulated : ctaid=(101,0,0) tid=(255,0,0)
4100000 instructions simulated : ctaid=(62,0,0) tid=(31,0,0)
4200000 instructions simulated : ctaid=(23,0,0) tid=(95,0,0)
4300000 instructions simulated : ctaid=(12,0,0) tid=(159,0,0)
4400000 instructions simulated : ctaid=(85,0,0) tid=(127,0,0)
4500000 instructions simulated : ctaid=(46,0,0) tid=(31,0,0)
4600000 instructions simulated : ctaid=(63,0,0) tid=(63,0,0)
4700000 instructions simulated : ctaid=(80,0,0) tid=(223,0,0)
4800000 instructions simulated : ctaid=(97,0,0) tid=(223,0,0)
4900000 instructions simulated : ctaid=(58,0,0) tid=(223,0,0)
5000000 instructions simulated : ctaid=(103,0,0) tid=(159,0,0)
5100000 instructions simulated : ctaid=(92,0,0) tid=(255,0,0)
5200000 instructions simulated : ctaid=(25,0,0) tid=(159,0,0)
5300000 instructions simulated : ctaid=(70,0,0) tid=(255,0,0)
5400000 instructions simulated : ctaid=(87,0,0) tid=(159,0,0)
5500000 instructions simulated : ctaid=(20,0,0) tid=(159,0,0)
5600000 instructions simulated : ctaid=(93,0,0) tid=(159,0,0)
5700000 instructions simulated : ctaid=(82,0,0) tid=(159,0,0)
5800000 instructions simulated : ctaid=(15,0,0) tid=(159,0,0)
5900000 instructions simulated : ctaid=(32,0,0) tid=(95,0,0)
6000000 instructions simulated : ctaid=(105,0,0) tid=(63,0,0)
6100000 instructions simulated : ctaid=(10,0,0) tid=(63,0,0)
6200000 instructions simulated : ctaid=(27,0,0) tid=(127,0,0)
6300000 instructions simulated : ctaid=(72,0,0) tid=(95,0,0)
6400000 instructions simulated : ctaid=(33,0,0) tid=(63,0,0)
6500000 instructions simulated : ctaid=(50,0,0) tid=(159,0,0)
6600000 instructions simulated : ctaid=(11,0,0) tid=(255,0,0)
6700000 instructions simulated : ctaid=(28,0,0) tid=(127,0,0)
6800000 instructions simulated : ctaid=(73,0,0) tid=(159,0,0)
6900000 instructions simulated : ctaid=(6,0,0) tid=(191,0,0)
7000000 instructions simulated : ctaid=(79,0,0) tid=(255,0,0)
7100000 instructions simulated : ctaid=(96,0,0) tid=(63,0,0)
7200000 instructions simulated : ctaid=(57,0,0) tid=(31,0,0)
7300000 instructions simulated : ctaid=(102,0,0) tid=(191,0,0)
7400000 instructions simulated : ctaid=(7,0,0) tid=(223,0,0)
7500000 instructions simulated : ctaid=(52,0,0) tid=(127,0,0)
7600000 instructions simulated : ctaid=(69,0,0) tid=(127,0,0)
7700000 instructions simulated : ctaid=(30,0,0) tid=(127,0,0)
7800000 instructions simulated : ctaid=(75,0,0) tid=(63,0,0)
7900000 instructions simulated : ctaid=(64,0,0) tid=(159,0,0)
8000000 instructions simulated : ctaid=(109,0,0) tid=(63,0,0)
8100000 instructions simulated : ctaid=(42,0,0) tid=(159,0,0)
8200000 instructions simulated : ctaid=(59,0,0) tid=(63,0,0)
8300000 instructions simulated : ctaid=(104,0,0) tid=(63,0,0)
8400000 instructions simulated : ctaid=(65,0,0) tid=(63,0,0)
8500000 instructions simulated : ctaid=(54,0,0) tid=(63,0,0)
8600000 instructions simulated : ctaid=(99,0,0) tid=(63,0,0)
8700000 instructions simulated : ctaid=(88,0,0) tid=(255,0,0)
8800000 instructions simulated : ctaid=(49,0,0) tid=(223,0,0)
8900000 instructions simulated : ctaid=(68,0,0) tid=(97,0,0)
cycles: 10000  inst.: 8909839 (ipc=891.0) sim_rate=12391 (inst/sec) elapsed = 0:0:11:59 / Tue May 24 14:35:05 2011
9000000 instructions simulated : ctaid=(74,0,0) tid=(113,0,0)
9100000 instructions simulated : ctaid=(76,0,0) tid=(82,0,0)
9200000 instructions simulated : ctaid=(74,0,0) tid=(55,0,0)
9300000 instructions simulated : ctaid=(69,0,0) tid=(255,0,0)
9400000 instructions simulated : ctaid=(69,0,0) tid=(195,0,0)
9500000 instructions simulated : ctaid=(5,0,0) tid=(27,0,0)
9600000 instructions simulated : ctaid=(19,0,0) tid=(15,0,0)
9700000 instructions simulated : ctaid=(61,0,0) tid=(79,0,0)
9800000 instructions simulated : ctaid=(5,0,0) tid=(111,0,0)
9900000 instructions simulated : ctaid=(106,0,0) tid=(175,0,0)
10000000 instructions simulated : ctaid=(99,0,0) tid=(143,0,0)
10100000 instructions simulated : ctaid=(8,0,0) tid=(52,0,0)
10200000 instructions simulated : ctaid=(54,0,0) tid=(73,0,0)
10300000 instructions simulated : ctaid=(19,0,0) tid=(27,0,0)
10400000 instructions simulated : ctaid=(75,0,0) tid=(10,0,0)
10500000 instructions simulated : ctaid=(19,0,0) tid=(18,0,0)
10600000 instructions simulated : ctaid=(46,0,0) tid=(136,0,0)
10700000 instructions simulated : ctaid=(23,0,0) tid=(81,0,0)
10800000 instructions simulated : ctaid=(91,0,0) tid=(170,0,0)
10900000 instructions simulated : ctaid=(68,0,0) tid=(56,0,0)
11000000 instructions simulated : ctaid=(9,0,0) tid=(161,0,0)
11100000 instructions simulated : ctaid=(44,0,0) tid=(63,0,0)
11200000 instructions simulated : ctaid=(39,0,0) tid=(157,0,0)
11300000 instructions simulated : ctaid=(58,0,0) tid=(222,0,0)
11400000 instructions simulated : ctaid=(100,0,0) tid=(119,0,0)
11500000 instructions simulated : ctaid=(44,0,0) tid=(159,0,0)
11600000 instructions simulated : ctaid=(49,0,0) tid=(210,0,0)
11700000 instructions simulated : ctaid=(63,0,0) tid=(87,0,0)
11800000 instructions simulated : ctaid=(67,0,0) tid=(25,0,0)
11900000 instructions simulated : ctaid=(14,0,0) tid=(182,0,0)
12000000 instructions simulated : ctaid=(90,0,0) tid=(172,0,0)
12100000 instructions simulated : ctaid=(11,0,0) tid=(141,0,0)
12200000 instructions simulated : ctaid=(98,0,0) tid=(51,0,0)
12300000 instructions simulated : ctaid=(42,0,0) tid=(119,0,0)
12400000 instructions simulated : ctaid=(89,0,0) tid=(212,0,0)
12500000 instructions simulated : ctaid=(20,0,0) tid=(63,0,0)
12600000 instructions simulated : ctaid=(68,0,0) tid=(12,0,0)
12700000 instructions simulated : ctaid=(75,0,0) tid=(83,0,0)
12800000 instructions simulated : ctaid=(86,0,0) tid=(1,0,0)
12900000 instructions simulated : ctaid=(17,0,0) tid=(224,0,0)
13000000 instructions simulated : ctaid=(47,0,0) tid=(31,0,0)
13100000 instructions simulated : ctaid=(16,0,0) tid=(121,0,0)
13200000 instructions simulated : ctaid=(66,0,0) tid=(122,0,0)
13300000 instructions simulated : ctaid=(25,0,0) tid=(161,0,0)
13400000 instructions simulated : ctaid=(50,0,0) tid=(23,0,0)
13500000 instructions simulated : ctaid=(60,0,0) tid=(49,0,0)
13600000 instructions simulated : ctaid=(79,0,0) tid=(245,0,0)
13700000 instructions simulated : ctaid=(24,0,0) tid=(119,0,0)
13800000 instructions simulated : ctaid=(10,0,0) tid=(47,0,0)
13900000 instructions simulated : ctaid=(47,0,0) tid=(222,0,0)
14000000 instructions simulated : ctaid=(58,0,0) tid=(106,0,0)
14100000 instructions simulated : ctaid=(61,0,0) tid=(25,0,0)
14200000 instructions simulated : ctaid=(76,0,0) tid=(219,0,0)
14300000 instructions simulated : ctaid=(80,0,0) tid=(151,0,0)
14400000 instructions simulated : ctaid=(71,0,0) tid=(88,0,0)
14500000 instructions simulated : ctaid=(78,0,0) tid=(243,0,0)
14600000 instructions simulated : ctaid=(12,0,0) tid=(104,0,0)
14700000 instructions simulated : ctaid=(43,0,0) tid=(162,0,0)
14800000 instructions simulated : ctaid=(41,0,0) tid=(85,0,0)
14900000 instructions simulated : ctaid=(63,0,0) tid=(212,0,0)
15000000 instructions simulated : ctaid=(10,0,0) tid=(171,0,0)
15100000 instructions simulated : ctaid=(13,0,0) tid=(216,0,0)
15200000 instructions simulated : ctaid=(14,0,0) tid=(143,0,0)
15300000 instructions simulated : ctaid=(45,0,0) tid=(143,0,0)
15400000 instructions simulated : ctaid=(42,0,0) tid=(206,0,0)
15500000 instructions simulated : ctaid=(43,0,0) tid=(48,0,0)
15600000 instructions simulated : ctaid=(92,0,0) tid=(235,0,0)
15700000 instructions simulated : ctaid=(97,0,0) tid=(129,0,0)
15800000 instructions simulated : ctaid=(6,0,0) tid=(125,0,0)
15900000 instructions simulated : ctaid=(27,0,0) tid=(138,0,0)
16000000 instructions simulated : ctaid=(18,0,0) tid=(111,0,0)
16100000 instructions simulated : ctaid=(58,0,0) tid=(33,0,0)
16200000 instructions simulated : ctaid=(109,0,0) tid=(58,0,0)
16300000 instructions simulated : ctaid=(36,0,0) tid=(198,0,0)
16400000 instructions simulated : ctaid=(100,0,0) tid=(238,0,0)
16500000 instructions simulated : ctaid=(42,0,0) tid=(149,0,0)
16600000 instructions simulated : ctaid=(23,0,0) tid=(164,0,0)
16700000 instructions simulated : ctaid=(3,0,0) tid=(61,0,0)
16800000 instructions simulated : ctaid=(62,0,0) tid=(101,0,0)
16900000 instructions simulated : ctaid=(31,0,0) tid=(223,0,0)
17000000 instructions simulated : ctaid=(37,0,0) tid=(126,0,0)
17100000 instructions simulated : ctaid=(64,0,0) tid=(184,0,0)
17200000 instructions simulated : ctaid=(19,0,0) tid=(37,0,0)
17300000 instructions simulated : ctaid=(74,0,0) tid=(152,0,0)
17400000 instructions simulated : ctaid=(9,0,0) tid=(33,0,0)
cycles: 20000  inst.: 17465720 (ipc=873.3) sim_rate=12665 (inst/sec) elapsed = 0:0:22:59 / Tue May 24 14:46:05 2011
17500000 instructions simulated : ctaid=(5,0,0) tid=(119,0,0)
17600000 instructions simulated : ctaid=(84,0,0) tid=(58,0,0)
17700000 instructions simulated : ctaid=(79,0,0) tid=(36,0,0)
17800000 instructions simulated : ctaid=(1,0,0) tid=(8,0,0)
17900000 instructions simulated : ctaid=(107,0,0) tid=(68,0,0)
18000000 instructions simulated : ctaid=(99,0,0) tid=(1,0,0)
18100000 instructions simulated : ctaid=(60,0,0) tid=(183,0,0)
18200000 instructions simulated : ctaid=(15,0,0) tid=(147,0,0)
18300000 instructions simulated : ctaid=(48,0,0) tid=(3,0,0)
18400000 instructions simulated : ctaid=(46,0,0) tid=(2,0,0)
18500000 instructions simulated : ctaid=(45,0,0) tid=(237,0,0)
18600000 instructions simulated : ctaid=(13,0,0) tid=(226,0,0)
18700000 instructions simulated : ctaid=(62,0,0) tid=(69,0,0)
18800000 instructions simulated : ctaid=(43,0,0) tid=(135,0,0)
18900000 instructions simulated : ctaid=(16,0,0) tid=(127,0,0)
19000000 instructions simulated : ctaid=(41,0,0) tid=(31,0,0)
19100000 instructions simulated : ctaid=(66,0,0) tid=(101,0,0)
19200000 instructions simulated : ctaid=(89,0,0) tid=(240,0,0)
19300000 instructions simulated : ctaid=(80,0,0) tid=(22,0,0)
19400000 instructions simulated : ctaid=(33,0,0) tid=(192,0,0)
19500000 instructions simulated : ctaid=(63,0,0) tid=(146,0,0)
19600000 instructions simulated : ctaid=(69,0,0) tid=(47,0,0)
19700000 instructions simulated : ctaid=(70,0,0) tid=(197,0,0)
19800000 instructions simulated : ctaid=(92,0,0) tid=(174,0,0)
19900000 instructions simulated : ctaid=(38,0,0) tid=(142,0,0)
20000000 instructions simulated : ctaid=(30,0,0) tid=(191,0,0)
20100000 instructions simulated : ctaid=(12,0,0) tid=(141,0,0)
20200000 instructions simulated : ctaid=(88,0,0) tid=(172,0,0)
20300000 instructions simulated : ctaid=(5,0,0) tid=(181,0,0)
20400000 instructions simulated : ctaid=(85,0,0) tid=(211,0,0)
20500000 instructions simulated : ctaid=(40,0,0) tid=(114,0,0)
20600000 instructions simulated : ctaid=(28,0,0) tid=(200,0,0)
20700000 instructions simulated : ctaid=(5,0,0) tid=(112,0,0)
20800000 instructions simulated : ctaid=(65,0,0) tid=(67,0,0)
20900000 instructions simulated : ctaid=(45,0,0) tid=(119,0,0)
21000000 instructions simulated : ctaid=(100,0,0) tid=(72,0,0)
21100000 instructions simulated : ctaid=(62,0,0) tid=(5,0,0)
21200000 instructions simulated : ctaid=(33,0,0) tid=(9,0,0)
21300000 instructions simulated : ctaid=(32,0,0) tid=(221,0,0)
21400000 instructions simulated : ctaid=(62,0,0) tid=(227,0,0)
21500000 instructions simulated : ctaid=(81,0,0) tid=(128,0,0)
21600000 instructions simulated : ctaid=(33,0,0) tid=(52,0,0)
21700000 instructions simulated : ctaid=(85,0,0) tid=(227,0,0)
21800000 instructions simulated : ctaid=(37,0,0) tid=(15,0,0)
21900000 instructions simulated : ctaid=(26,0,0) tid=(79,0,0)
22000000 instructions simulated : ctaid=(43,0,0) tid=(207,0,0)
22100000 instructions simulated : ctaid=(60,0,0) tid=(15,0,0)
22200000 instructions simulated : ctaid=(49,0,0) tid=(175,0,0)
22300000 instructions simulated : ctaid=(66,0,0) tid=(207,0,0)
22400000 instructions simulated : ctaid=(83,0,0) tid=(143,0,0)
22500000 instructions simulated : ctaid=(44,0,0) tid=(143,0,0)
22600000 instructions simulated : ctaid=(57,0,0) tid=(111,0,0)
22700000 instructions simulated : ctaid=(111,0,0) tid=(239,0,0)
22800000 instructions simulated : ctaid=(101,0,0) tid=(15,0,0)
22900000 instructions simulated : ctaid=(25,0,0) tid=(47,0,0)
23000000 instructions simulated : ctaid=(27,0,0) tid=(215,0,0)
23100000 instructions simulated : ctaid=(74,0,0) tid=(235,0,0)
23200000 instructions simulated : ctaid=(69,0,0) tid=(238,0,0)
23300000 instructions simulated : ctaid=(13,0,0) tid=(225,0,0)
23400000 instructions simulated : ctaid=(68,0,0) tid=(244,0,0)
23500000 instructions simulated : ctaid=(13,0,0) tid=(235,0,0)
23600000 instructions simulated : ctaid=(104,0,0) tid=(199,0,0)
23700000 instructions simulated : ctaid=(86,0,0) tid=(166,0,0)
23800000 instructions simulated : ctaid=(5,0,0) tid=(36,0,0)
23900000 instructions simulated : ctaid=(60,0,0) tid=(90,0,0)
24000000 instructions simulated : ctaid=(43,0,0) tid=(190,0,0)
24100000 instructions simulated : ctaid=(10,0,0) tid=(17,0,0)
24200000 instructions simulated : ctaid=(55,0,0) tid=(124,0,0)
24300000 instructions simulated : ctaid=(17,0,0) tid=(156,0,0)
24400000 instructions simulated : ctaid=(46,0,0) tid=(155,0,0)
24500000 instructions simulated : ctaid=(102,0,0) tid=(174,0,0)
24600000 instructions simulated : ctaid=(58,0,0) tid=(67,0,0)
24700000 instructions simulated : ctaid=(40,0,0) tid=(185,0,0)
24800000 instructions simulated : ctaid=(47,0,0) tid=(92,0,0)
24900000 instructions simulated : ctaid=(91,0,0) tid=(208,0,0)
25000000 instructions simulated : ctaid=(12,0,0) tid=(58,0,0)
25100000 instructions simulated : ctaid=(106,0,0) tid=(99,0,0)
25200000 instructions simulated : ctaid=(75,0,0) tid=(31,0,0)
25300000 instructions simulated : ctaid=(87,0,0) tid=(230,0,0)
25400000 instructions simulated : ctaid=(74,0,0) tid=(249,0,0)
25500000 instructions simulated : ctaid=(22,0,0) tid=(6,0,0)
25600000 instructions simulated : ctaid=(86,0,0) tid=(227,0,0)
25700000 instructions simulated : ctaid=(4,0,0) tid=(206,0,0)
25800000 instructions simulated : ctaid=(80,0,0) tid=(214,0,0)
25900000 instructions simulated : ctaid=(6,0,0) tid=(135,0,0)
26000000 instructions simulated : ctaid=(106,0,0) tid=(121,0,0)
cycles: 30000  inst.: 26035298 (ipc=867.8) sim_rate=12972 (inst/sec) elapsed = 0:0:33:27 / Tue May 24 14:56:33 2011
26100000 instructions simulated : ctaid=(34,0,0) tid=(4,0,0)
26200000 instructions simulated : ctaid=(87,0,0) tid=(208,0,0)
26300000 instructions simulated : ctaid=(11,0,0) tid=(234,0,0)
26400000 instructions simulated : ctaid=(73,0,0) tid=(148,0,0)
26500000 instructions simulated : ctaid=(2,0,0) tid=(85,0,0)
26600000 instructions simulated : ctaid=(71,0,0) tid=(146,0,0)
26700000 instructions simulated : ctaid=(27,0,0) tid=(151,0,0)
26800000 instructions simulated : ctaid=(77,0,0) tid=(118,0,0)
26900000 instructions simulated : ctaid=(3,0,0) tid=(7,0,0)
27000000 instructions simulated : ctaid=(53,0,0) tid=(85,0,0)
27100000 instructions simulated : ctaid=(71,0,0) tid=(36,0,0)
27200000 instructions simulated : ctaid=(62,0,0) tid=(159,0,0)
27300000 instructions simulated : ctaid=(32,0,0) tid=(186,0,0)
27400000 instructions simulated : ctaid=(19,0,0) tid=(87,0,0)
27500000 instructions simulated : ctaid=(54,0,0) tid=(156,0,0)
27600000 instructions simulated : ctaid=(97,0,0) tid=(162,0,0)
27700000 instructions simulated : ctaid=(81,0,0) tid=(12,0,0)
27800000 instructions simulated : ctaid=(63,0,0) tid=(6,0,0)
27900000 instructions simulated : ctaid=(5,0,0) tid=(7,0,0)
28000000 instructions simulated : ctaid=(54,0,0) tid=(146,0,0)
28100000 instructions simulated : ctaid=(44,0,0) tid=(192,0,0)
28200000 instructions simulated : ctaid=(45,0,0) tid=(181,0,0)
28300000 instructions simulated : ctaid=(77,0,0) tid=(184,0,0)
28400000 instructions simulated : ctaid=(20,0,0) tid=(1,0,0)
28500000 instructions simulated : ctaid=(9,0,0) tid=(234,0,0)
28600000 instructions simulated : ctaid=(47,0,0) tid=(166,0,0)
28700000 instructions simulated : ctaid=(107,0,0) tid=(86,0,0)
28800000 instructions simulated : ctaid=(53,0,0) tid=(135,0,0)
28900000 instructions simulated : ctaid=(85,0,0) tid=(63,0,0)
29000000 instructions simulated : ctaid=(21,0,0) tid=(97,0,0)
29100000 instructions simulated : ctaid=(53,0,0) tid=(85,0,0)
29200000 instructions simulated : ctaid=(4,0,0) tid=(164,0,0)
29300000 instructions simulated : ctaid=(2,0,0) tid=(190,0,0)
29400000 instructions simulated : ctaid=(72,0,0) tid=(212,0,0)
29500000 instructions simulated : ctaid=(73,0,0) tid=(168,0,0)
29600000 instructions simulated : ctaid=(103,0,0) tid=(135,0,0)
29700000 instructions simulated : ctaid=(99,0,0) tid=(137,0,0)
29800000 instructions simulated : ctaid=(66,0,0) tid=(124,0,0)
29900000 instructions simulated : ctaid=(105,0,0) tid=(133,0,0)
30000000 instructions simulated : ctaid=(25,0,0) tid=(153,0,0)
30100000 instructions simulated : ctaid=(35,0,0) tid=(3,0,0)
30200000 instructions simulated : ctaid=(15,0,0) tid=(184,0,0)
30300000 instructions simulated : ctaid=(51,0,0) tid=(61,0,0)
30400000 instructions simulated : ctaid=(110,0,0) tid=(219,0,0)
30500000 instructions simulated : ctaid=(104,0,0) tid=(64,0,0)
30600000 instructions simulated : ctaid=(28,0,0) tid=(144,0,0)
30700000 instructions simulated : ctaid=(96,0,0) tid=(90,0,0)
30800000 instructions simulated : ctaid=(106,0,0) tid=(77,0,0)
30900000 instructions simulated : ctaid=(99,0,0) tid=(217,0,0)
31000000 instructions simulated : ctaid=(74,0,0) tid=(12,0,0)
31100000 instructions simulated : ctaid=(43,0,0) tid=(125,0,0)
31200000 instructions simulated : ctaid=(56,0,0) tid=(142,0,0)
31300000 instructions simulated : ctaid=(48,0,0) tid=(76,0,0)
31400000 instructions simulated : ctaid=(107,0,0) tid=(81,0,0)
31500000 instructions simulated : ctaid=(98,0,0) tid=(29,0,0)
31600000 instructions simulated : ctaid=(51,0,0) tid=(72,0,0)
31700000 instructions simulated : ctaid=(22,0,0) tid=(194,0,0)
31800000 instructions simulated : ctaid=(104,0,0) tid=(103,0,0)
31900000 instructions simulated : ctaid=(37,0,0) tid=(55,0,0)
32000000 instructions simulated : ctaid=(74,0,0) tid=(179,0,0)
32100000 instructions simulated : ctaid=(57,0,0) tid=(43,0,0)
32200000 instructions simulated : ctaid=(2,0,0) tid=(121,0,0)
32300000 instructions simulated : ctaid=(36,0,0) tid=(227,0,0)
32400000 instructions simulated : ctaid=(12,0,0) tid=(7,0,0)
32500000 instructions simulated : ctaid=(104,0,0) tid=(192,0,0)
32600000 instructions simulated : ctaid=(79,0,0) tid=(189,0,0)
32700000 instructions simulated : ctaid=(28,0,0) tid=(250,0,0)
32800000 instructions simulated : ctaid=(109,0,0) tid=(253,0,0)
32900000 instructions simulated : ctaid=(37,0,0) tid=(214,0,0)
33000000 instructions simulated : ctaid=(79,0,0) tid=(44,0,0)
33100000 instructions simulated : ctaid=(72,0,0) tid=(228,0,0)
33200000 instructions simulated : ctaid=(42,0,0) tid=(69,0,0)
33300000 instructions simulated : ctaid=(20,0,0) tid=(19,0,0)
33400000 instructions simulated : ctaid=(43,0,0) tid=(28,0,0)
33500000 instructions simulated : ctaid=(39,0,0) tid=(5,0,0)
33600000 instructions simulated : ctaid=(96,0,0) tid=(163,0,0)
33700000 instructions simulated : ctaid=(90,0,0) tid=(151,0,0)
33800000 instructions simulated : ctaid=(89,0,0) tid=(151,0,0)
33900000 instructions simulated : ctaid=(17,0,0) tid=(183,0,0)
34000000 instructions simulated : ctaid=(63,0,0) tid=(155,0,0)
34100000 instructions simulated : ctaid=(72,0,0) tid=(36,0,0)
34200000 instructions simulated : ctaid=(46,0,0) tid=(28,0,0)
34300000 instructions simulated : ctaid=(62,0,0) tid=(31,0,0)
34400000 instructions simulated : ctaid=(86,0,0) tid=(154,0,0)
34500000 instructions simulated : ctaid=(74,0,0) tid=(97,0,0)
cycles: 40000  inst.: 34533709 (ipc=863.3) sim_rate=13256 (inst/sec) elapsed = 0:0:43:25 / Tue May 24 15:06:31 2011
34600000 instructions simulated : ctaid=(110,0,0) tid=(60,0,0)
34700000 instructions simulated : ctaid=(56,0,0) tid=(111,0,0)
34800000 instructions simulated : ctaid=(17,0,0) tid=(79,0,0)
34900000 instructions simulated : ctaid=(34,0,0) tid=(79,0,0)
35000000 instructions simulated : ctaid=(107,0,0) tid=(47,0,0)
35100000 instructions simulated : ctaid=(40,0,0) tid=(143,0,0)
35200000 instructions simulated : ctaid=(1,0,0) tid=(111,0,0)
35300000 instructions simulated : ctaid=(74,0,0) tid=(207,0,0)
35400000 instructions simulated : ctaid=(65,0,0) tid=(207,0,0)
35500000 instructions simulated : ctaid=(76,0,0) tid=(79,0,0)
35600000 instructions simulated : ctaid=(97,0,0) tid=(79,0,0)
35700000 instructions simulated : ctaid=(6,0,0) tid=(79,0,0)
35800000 instructions simulated : ctaid=(7,0,0) tid=(113,0,0)
35900000 instructions simulated : ctaid=(109,0,0) tid=(32,0,0)
36000000 instructions simulated : ctaid=(16,0,0) tid=(23,0,0)
36100000 instructions simulated : ctaid=(12,0,0) tid=(110,0,0)
36200000 instructions simulated : ctaid=(68,0,0) tid=(101,0,0)
36300000 instructions simulated : ctaid=(12,0,0) tid=(97,0,0)
36400000 instructions simulated : ctaid=(98,0,0) tid=(97,0,0)
36500000 instructions simulated : ctaid=(77,0,0) tid=(237,0,0)
36600000 instructions simulated : ctaid=(57,0,0) tid=(156,0,0)
36700000 instructions simulated : ctaid=(4,0,0) tid=(108,0,0)
36800000 instructions simulated : ctaid=(6,0,0) tid=(208,0,0)
36900000 instructions simulated : ctaid=(75,0,0) tid=(15,0,0)
37000000 instructions simulated : ctaid=(68,0,0) tid=(178,0,0)
37100000 instructions simulated : ctaid=(86,0,0) tid=(77,0,0)
37200000 instructions simulated : ctaid=(78,0,0) tid=(231,0,0)
37300000 instructions simulated : ctaid=(107,0,0) tid=(203,0,0)
37400000 instructions simulated : ctaid=(104,0,0) tid=(225,0,0)
37500000 instructions simulated : ctaid=(32,0,0) tid=(15,0,0)
37600000 instructions simulated : ctaid=(19,0,0) tid=(165,0,0)
37700000 instructions simulated : ctaid=(0,0,0) tid=(237,0,0)
37800000 instructions simulated : ctaid=(97,0,0) tid=(128,0,0)
37900000 instructions simulated : ctaid=(103,0,0) tid=(53,0,0)
38000000 instructions simulated : ctaid=(59,0,0) tid=(213,0,0)
38100000 instructions simulated : ctaid=(83,0,0) tid=(145,0,0)
38200000 instructions simulated : ctaid=(4,0,0) tid=(50,0,0)
38300000 instructions simulated : ctaid=(52,0,0) tid=(56,0,0)
38400000 instructions simulated : ctaid=(33,0,0) tid=(102,0,0)
38500000 instructions simulated : ctaid=(68,0,0) tid=(198,0,0)
38600000 instructions simulated : ctaid=(70,0,0) tid=(16,0,0)
38700000 instructions simulated : ctaid=(65,0,0) tid=(57,0,0)
38800000 instructions simulated : ctaid=(103,0,0) tid=(31,0,0)
38900000 instructions simulated : ctaid=(85,0,0) tid=(237,0,0)
39000000 instructions simulated : ctaid=(68,0,0) tid=(18,0,0)
39100000 instructions simulated : ctaid=(72,0,0) tid=(209,0,0)
39200000 instructions simulated : ctaid=(56,0,0) tid=(2,0,0)
39300000 instructions simulated : ctaid=(1,0,0) tid=(242,0,0)
39400000 instructions simulated : ctaid=(101,0,0) tid=(61,0,0)
39500000 instructions simulated : ctaid=(61,0,0) tid=(101,0,0)
39600000 instructions simulated : ctaid=(14,0,0) tid=(252,0,0)
39700000 instructions simulated : ctaid=(28,0,0) tid=(221,0,0)
39800000 instructions simulated : ctaid=(12,0,0) tid=(114,0,0)
39900000 instructions simulated : ctaid=(98,0,0) tid=(179,0,0)
40000000 instructions simulated : ctaid=(64,0,0) tid=(12,0,0)
40100000 instructions simulated : ctaid=(77,0,0) tid=(29,0,0)
40200000 instructions simulated : ctaid=(24,0,0) tid=(208,0,0)
40300000 instructions simulated : ctaid=(71,0,0) tid=(151,0,0)
40400000 instructions simulated : ctaid=(11,0,0) tid=(13,0,0)
40500000 instructions simulated : ctaid=(105,0,0) tid=(191,0,0)
40600000 instructions simulated : ctaid=(72,0,0) tid=(10,0,0)
40700000 instructions simulated : ctaid=(32,0,0) tid=(201,0,0)
40800000 instructions simulated : ctaid=(109,0,0) tid=(200,0,0)
40900000 instructions simulated : ctaid=(104,0,0) tid=(207,0,0)
41000000 instructions simulated : ctaid=(70,0,0) tid=(119,0,0)
41100000 instructions simulated : ctaid=(13,0,0) tid=(26,0,0)
41200000 instructions simulated : ctaid=(31,0,0) tid=(118,0,0)
41300000 instructions simulated : ctaid=(33,0,0) tid=(173,0,0)
41400000 instructions simulated : ctaid=(65,0,0) tid=(8,0,0)
41500000 instructions simulated : ctaid=(45,0,0) tid=(205,0,0)
41600000 instructions simulated : ctaid=(17,0,0) tid=(125,0,0)
41700000 instructions simulated : ctaid=(110,0,0) tid=(177,0,0)
41800000 instructions simulated : ctaid=(32,0,0) tid=(159,0,0)
41900000 instructions simulated : ctaid=(39,0,0) tid=(102,0,0)
42000000 instructions simulated : ctaid=(68,0,0) tid=(188,0,0)
42100000 instructions simulated : ctaid=(87,0,0) tid=(237,0,0)
42200000 instructions simulated : ctaid=(65,0,0) tid=(135,0,0)
42300000 instructions simulated : ctaid=(98,0,0) tid=(120,0,0)
42400000 instructions simulated : ctaid=(48,0,0) tid=(233,0,0)
42500000 instructions simulated : ctaid=(80,0,0) tid=(135,0,0)
42600000 instructions simulated : ctaid=(95,0,0) tid=(171,0,0)
42700000 instructions simulated : ctaid=(50,0,0) tid=(41,0,0)
42800000 instructions simulated : ctaid=(101,0,0) tid=(110,0,0)
42900000 instructions simulated : ctaid=(91,0,0) tid=(229,0,0)
43000000 instructions simulated : ctaid=(38,0,0) tid=(133,0,0)
43100000 instructions simulated : ctaid=(72,0,0) tid=(66,0,0)
43200000 instructions simulated : ctaid=(60,0,0) tid=(92,0,0)
cycles: 50000  inst.: 43237008 (ipc=864.7) sim_rate=13275 (inst/sec) elapsed = 0:0:54:17 / Tue May 24 15:17:23 2011
43300000 instructions simulated : ctaid=(64,0,0) tid=(47,0,0)
43400000 instructions simulated : ctaid=(8,0,0) tid=(241,0,0)
43500000 instructions simulated : ctaid=(52,0,0) tid=(71,0,0)
43600000 instructions simulated : ctaid=(108,0,0) tid=(207,0,0)
43700000 instructions simulated : ctaid=(8,0,0) tid=(198,0,0)
43800000 instructions simulated : ctaid=(19,0,0) tid=(64,0,0)
43900000 instructions simulated : ctaid=(83,0,0) tid=(5,0,0)
44000000 instructions simulated : ctaid=(36,0,0) tid=(111,0,0)
44100000 instructions simulated : ctaid=(81,0,0) tid=(217,0,0)
44200000 instructions simulated : ctaid=(98,0,0) tid=(4,0,0)
44300000 instructions simulated : ctaid=(4,0,0) tid=(98,0,0)
44400000 instructions simulated : ctaid=(96,0,0) tid=(98,0,0)
44500000 instructions simulated : ctaid=(60,0,0) tid=(104,0,0)
44600000 instructions simulated : ctaid=(9,0,0) tid=(95,0,0)
44700000 instructions simulated : ctaid=(17,0,0) tid=(79,0,0)
44800000 instructions simulated : ctaid=(101,0,0) tid=(98,0,0)
44900000 instructions simulated : ctaid=(68,0,0) tid=(56,0,0)
45000000 instructions simulated : ctaid=(33,0,0) tid=(143,0,0)
45100000 instructions simulated : ctaid=(84,0,0) tid=(27,0,0)
45200000 instructions simulated : ctaid=(104,0,0) tid=(138,0,0)
45300000 instructions simulated : ctaid=(53,0,0) tid=(13,0,0)
45400000 instructions simulated : ctaid=(42,0,0) tid=(179,0,0)
45500000 instructions simulated : ctaid=(39,0,0) tid=(8,0,0)
45600000 instructions simulated : ctaid=(104,0,0) tid=(187,0,0)
45700000 instructions simulated : ctaid=(32,0,0) tid=(65,0,0)
45800000 instructions simulated : ctaid=(10,0,0) tid=(211,0,0)
45900000 instructions simulated : ctaid=(26,0,0) tid=(38,0,0)
46000000 instructions simulated : ctaid=(6,0,0) tid=(233,0,0)
46100000 instructions simulated : ctaid=(9,0,0) tid=(141,0,0)
46200000 instructions simulated : ctaid=(17,0,0) tid=(243,0,0)
46300000 instructions simulated : ctaid=(13,0,0) tid=(29,0,0)
46400000 instructions simulated : ctaid=(73,0,0) tid=(163,0,0)
46500000 instructions simulated : ctaid=(70,0,0) tid=(119,0,0)
46600000 instructions simulated : ctaid=(93,0,0) tid=(177,0,0)
46700000 instructions simulated : ctaid=(84,0,0) tid=(164,0,0)
46800000 instructions simulated : ctaid=(106,0,0) tid=(73,0,0)
46900000 instructions simulated : ctaid=(98,0,0) tid=(143,0,0)
47000000 instructions simulated : ctaid=(23,0,0) tid=(183,0,0)
47100000 instructions simulated : ctaid=(17,0,0) tid=(154,0,0)
47200000 instructions simulated : ctaid=(65,0,0) tid=(32,0,0)
47300000 instructions simulated : ctaid=(94,0,0) tid=(85,0,0)
47400000 instructions simulated : ctaid=(21,0,0) tid=(125,0,0)
47500000 instructions simulated : ctaid=(54,0,0) tid=(57,0,0)
47600000 instructions simulated : ctaid=(53,0,0) tid=(207,0,0)
47700000 instructions simulated : ctaid=(98,0,0) tid=(79,0,0)
47800000 instructions simulated : ctaid=(31,0,0) tid=(207,0,0)
47900000 instructions simulated : ctaid=(76,0,0) tid=(79,0,0)
48000000 instructions simulated : ctaid=(65,0,0) tid=(143,0,0)
48100000 instructions simulated : ctaid=(110,0,0) tid=(47,0,0)
48200000 instructions simulated : ctaid=(15,0,0) tid=(15,0,0)
48300000 instructions simulated : ctaid=(107,0,0) tid=(111,0,0)
48400000 instructions simulated : ctaid=(66,0,0) tid=(143,0,0)
48500000 instructions simulated : ctaid=(6,0,0) tid=(47,0,0)
48600000 instructions simulated : ctaid=(52,0,0) tid=(175,0,0)
48700000 instructions simulated : ctaid=(86,0,0) tid=(80,0,0)
48800000 instructions simulated : ctaid=(48,0,0) tid=(109,0,0)
48900000 instructions simulated : ctaid=(40,0,0) tid=(94,0,0)
49000000 instructions simulated : ctaid=(9,0,0) tid=(18,0,0)
49100000 instructions simulated : ctaid=(8,0,0) tid=(191,0,0)
49200000 instructions simulated : ctaid=(9,0,0) tid=(13,0,0)
49300000 instructions simulated : ctaid=(40,0,0) tid=(91,0,0)
49400000 instructions simulated : ctaid=(76,0,0) tid=(241,0,0)
49500000 instructions simulated : ctaid=(111,0,0) tid=(168,0,0)
49600000 instructions simulated : ctaid=(1,0,0) tid=(180,0,0)
49700000 instructions simulated : ctaid=(90,0,0) tid=(64,0,0)
49800000 instructions simulated : ctaid=(104,0,0) tid=(31,0,0)
49900000 instructions simulated : ctaid=(97,0,0) tid=(130,0,0)
50000000 instructions simulated : ctaid=(31,0,0) tid=(87,0,0)
50100000 instructions simulated : ctaid=(109,0,0) tid=(123,0,0)
50200000 instructions simulated : ctaid=(110,0,0) tid=(163,0,0)
50300000 instructions simulated : ctaid=(18,0,0) tid=(60,0,0)
50400000 instructions simulated : ctaid=(31,0,0) tid=(175,0,0)
50500000 instructions simulated : ctaid=(80,0,0) tid=(96,0,0)
50600000 instructions simulated : ctaid=(89,0,0) tid=(135,0,0)
50700000 instructions simulated : ctaid=(101,0,0) tid=(64,0,0)
50800000 instructions simulated : ctaid=(81,0,0) tid=(65,0,0)
50900000 instructions simulated : ctaid=(68,0,0) tid=(197,0,0)
51000000 instructions simulated : ctaid=(2,0,0) tid=(184,0,0)
51100000 instructions simulated : ctaid=(4,0,0) tid=(63,0,0)
51200000 instructions simulated : ctaid=(0,0,0) tid=(239,0,0)
51300000 instructions simulated : ctaid=(98,0,0) tid=(59,0,0)
51400000 instructions simulated : ctaid=(48,0,0) tid=(84,0,0)
51500000 instructions simulated : ctaid=(21,0,0) tid=(45,0,0)
51600000 instructions simulated : ctaid=(48,0,0) tid=(223,0,0)
51700000 instructions simulated : ctaid=(2,0,0) tid=(47,0,0)
51800000 instructions simulated : ctaid=(61,0,0) tid=(30,0,0)
cycles: 60000  inst.: 51807720 (ipc=863.5) sim_rate=13331 (inst/sec) elapsed = 0:1:04:46 / Tue May 24 15:27:52 2011
51900000 instructions simulated : ctaid=(71,0,0) tid=(36,0,0)
52000000 instructions simulated : ctaid=(82,0,0) tid=(238,0,0)
52100000 instructions simulated : ctaid=(97,0,0) tid=(107,0,0)
52200000 instructions simulated : ctaid=(96,0,0) tid=(223,0,0)
52300000 instructions simulated : ctaid=(28,0,0) tid=(210,0,0)
52400000 instructions simulated : ctaid=(21,0,0) tid=(163,0,0)
52500000 instructions simulated : ctaid=(82,0,0) tid=(163,0,0)
52600000 instructions simulated : ctaid=(60,0,0) tid=(50,0,0)
52700000 instructions simulated : ctaid=(76,0,0) tid=(242,0,0)
52800000 instructions simulated : ctaid=(60,0,0) tid=(180,0,0)
52900000 instructions simulated : ctaid=(24,0,0) tid=(97,0,0)
53000000 instructions simulated : ctaid=(36,0,0) tid=(232,0,0)
53100000 instructions simulated : ctaid=(71,0,0) tid=(43,0,0)
53200000 instructions simulated : ctaid=(64,0,0) tid=(211,0,0)
53300000 instructions simulated : ctaid=(48,0,0) tid=(117,0,0)
53400000 instructions simulated : ctaid=(83,0,0) tid=(117,0,0)
53500000 instructions simulated : ctaid=(88,0,0) tid=(97,0,0)
53600000 instructions simulated : ctaid=(111,0,0) tid=(41,0,0)
53700000 instructions simulated : ctaid=(98,0,0) tid=(35,0,0)
53800000 instructions simulated : ctaid=(38,0,0) tid=(74,0,0)
53900000 instructions simulated : ctaid=(12,0,0) tid=(107,0,0)
54000000 instructions simulated : ctaid=(58,0,0) tid=(167,0,0)
54100000 instructions simulated : ctaid=(95,0,0) tid=(118,0,0)
54200000 instructions simulated : ctaid=(47,0,0) tid=(131,0,0)
54300000 instructions simulated : ctaid=(36,0,0) tid=(132,0,0)
54400000 instructions simulated : ctaid=(14,0,0) tid=(157,0,0)
54500000 instructions simulated : ctaid=(39,0,0) tid=(97,0,0)
54600000 instructions simulated : ctaid=(54,0,0) tid=(223,0,0)
54700000 instructions simulated : ctaid=(32,0,0) tid=(191,0,0)
54800000 instructions simulated : ctaid=(108,0,0) tid=(134,0,0)
54900000 instructions simulated : ctaid=(52,0,0) tid=(228,0,0)
55000000 instructions simulated : ctaid=(83,0,0) tid=(84,0,0)
55100000 instructions simulated : ctaid=(11,0,0) tid=(185,0,0)
55200000 instructions simulated : ctaid=(40,0,0) tid=(114,0,0)
55300000 instructions simulated : ctaid=(44,0,0) tid=(184,0,0)
55400000 instructions simulated : ctaid=(61,0,0) tid=(31,0,0)
55500000 instructions simulated : ctaid=(60,0,0) tid=(135,0,0)
55600000 instructions simulated : ctaid=(89,0,0) tid=(95,0,0)
55700000 instructions simulated : ctaid=(93,0,0) tid=(63,0,0)
55800000 instructions simulated : ctaid=(14,0,0) tid=(209,0,0)
55900000 instructions simulated : ctaid=(98,0,0) tid=(163,0,0)
56000000 instructions simulated : ctaid=(101,0,0) tid=(144,0,0)
56100000 instructions simulated : ctaid=(42,0,0) tid=(63,0,0)
56200000 instructions simulated : ctaid=(14,0,0) tid=(27,0,0)
56300000 instructions simulated : ctaid=(107,0,0) tid=(150,0,0)
56400000 instructions simulated : ctaid=(42,0,0) tid=(55,0,0)
56500000 instructions simulated : ctaid=(89,0,0) tid=(79,0,0)
56600000 instructions simulated : ctaid=(19,0,0) tid=(198,0,0)
56700000 instructions simulated : ctaid=(80,0,0) tid=(59,0,0)
56800000 instructions simulated : ctaid=(37,0,0) tid=(127,0,0)
56900000 instructions simulated : ctaid=(22,0,0) tid=(189,0,0)
57000000 instructions simulated : ctaid=(18,0,0) tid=(167,0,0)
57100000 instructions simulated : ctaid=(0,0,0) tid=(190,0,0)
57200000 instructions simulated : ctaid=(66,0,0) tid=(243,0,0)
57300000 instructions simulated : ctaid=(27,0,0) tid=(198,0,0)
57400000 instructions simulated : ctaid=(40,0,0) tid=(130,0,0)
57500000 instructions simulated : ctaid=(75,0,0) tid=(77,0,0)
57600000 instructions simulated : ctaid=(41,0,0) tid=(111,0,0)
57700000 instructions simulated : ctaid=(101,0,0) tid=(65,0,0)
57800000 instructions simulated : ctaid=(111,0,0) tid=(117,0,0)
57900000 instructions simulated : ctaid=(63,0,0) tid=(212,0,0)
58000000 instructions simulated : ctaid=(80,0,0) tid=(226,0,0)
58100000 instructions simulated : ctaid=(90,0,0) tid=(177,0,0)
58200000 instructions simulated : ctaid=(67,0,0) tid=(216,0,0)
58300000 instructions simulated : ctaid=(41,0,0) tid=(215,0,0)
58400000 instructions simulated : ctaid=(107,0,0) tid=(151,0,0)
58500000 instructions simulated : ctaid=(97,0,0) tid=(204,0,0)
58600000 instructions simulated : ctaid=(32,0,0) tid=(119,0,0)
58700000 instructions simulated : ctaid=(9,0,0) tid=(16,0,0)
58800000 instructions simulated : ctaid=(70,0,0) tid=(71,0,0)
58900000 instructions simulated : ctaid=(48,0,0) tid=(89,0,0)
59000000 instructions simulated : ctaid=(37,0,0) tid=(147,0,0)
59100000 instructions simulated : ctaid=(98,0,0) tid=(203,0,0)
59200000 instructions simulated : ctaid=(64,0,0) tid=(102,0,0)
59300000 instructions simulated : ctaid=(102,0,0) tid=(238,0,0)
59400000 instructions simulated : ctaid=(69,0,0) tid=(145,0,0)
59500000 instructions simulated : ctaid=(94,0,0) tid=(69,0,0)
59600000 instructions simulated : ctaid=(15,0,0) tid=(126,0,0)
59700000 instructions simulated : ctaid=(82,0,0) tid=(59,0,0)
59800000 instructions simulated : ctaid=(42,0,0) tid=(109,0,0)
59900000 instructions simulated : ctaid=(49,0,0) tid=(22,0,0)
60000000 instructions simulated : ctaid=(41,0,0) tid=(152,0,0)
60100000 instructions simulated : ctaid=(68,0,0) tid=(125,0,0)
60200000 instructions simulated : ctaid=(97,0,0) tid=(211,0,0)
60300000 instructions simulated : ctaid=(75,0,0) tid=(221,0,0)
cycles: 70000  inst.: 60306282 (ipc=861.5) sim_rate=13467 (inst/sec) elapsed = 0:1:14:38 / Tue May 24 15:37:44 2011
60400000 instructions simulated : ctaid=(53,0,0) tid=(21,0,0)
60500000 instructions simulated : ctaid=(48,0,0) tid=(239,0,0)
60600000 instructions simulated : ctaid=(65,0,0) tid=(143,0,0)
60700000 instructions simulated : ctaid=(26,0,0) tid=(143,0,0)
60800000 instructions simulated : ctaid=(43,0,0) tid=(143,0,0)
60900000 instructions simulated : ctaid=(88,0,0) tid=(111,0,0)
61000000 instructions simulated : ctaid=(77,0,0) tid=(47,0,0)
61100000 instructions simulated : ctaid=(10,0,0) tid=(143,0,0)
61200000 instructions simulated : ctaid=(44,0,0) tid=(175,0,0)
61300000 instructions simulated : ctaid=(72,0,0) tid=(207,0,0)
61400000 instructions simulated : ctaid=(101,0,0) tid=(207,0,0)
61500000 instructions simulated : ctaid=(11,0,0) tid=(207,0,0)
61600000 instructions simulated : ctaid=(54,0,0) tid=(179,0,0)
61700000 instructions simulated : ctaid=(44,0,0) tid=(62,0,0)
61800000 instructions simulated : ctaid=(66,0,0) tid=(137,0,0)
61900000 instructions simulated : ctaid=(35,0,0) tid=(77,0,0)
62000000 instructions simulated : ctaid=(91,0,0) tid=(64,0,0)
62100000 instructions simulated : ctaid=(36,0,0) tid=(68,0,0)
62200000 instructions simulated : ctaid=(12,0,0) tid=(65,0,0)
62300000 instructions simulated : ctaid=(103,0,0) tid=(61,0,0)
62400000 instructions simulated : ctaid=(53,0,0) tid=(213,0,0)
62500000 instructions simulated : ctaid=(28,0,0) tid=(8,0,0)
62600000 instructions simulated : ctaid=(90,0,0) tid=(228,0,0)
62700000 instructions simulated : ctaid=(106,0,0) tid=(153,0,0)
62800000 instructions simulated : ctaid=(14,0,0) tid=(147,0,0)
62900000 instructions simulated : ctaid=(62,0,0) tid=(50,0,0)
63000000 instructions simulated : ctaid=(57,0,0) tid=(7,0,0)
63100000 instructions simulated : ctaid=(28,0,0) tid=(140,0,0)
63200000 instructions simulated : ctaid=(47,0,0) tid=(221,0,0)
63300000 instructions simulated : ctaid=(61,0,0) tid=(151,0,0)
63400000 instructions simulated : ctaid=(84,0,0) tid=(196,0,0)
63500000 instructions simulated : ctaid=(38,0,0) tid=(158,0,0)
63600000 instructions simulated : ctaid=(49,0,0) tid=(229,0,0)
63700000 instructions simulated : ctaid=(87,0,0) tid=(165,0,0)
63800000 instructions simulated : ctaid=(75,0,0) tid=(185,0,0)
63900000 instructions simulated : ctaid=(91,0,0) tid=(10,0,0)
64000000 instructions simulated : ctaid=(36,0,0) tid=(32,0,0)
64100000 instructions simulated : ctaid=(89,0,0) tid=(220,0,0)
64200000 instructions simulated : ctaid=(24,0,0) tid=(237,0,0)
64300000 instructions simulated : ctaid=(58,0,0) tid=(72,0,0)
64400000 instructions simulated : ctaid=(87,0,0) tid=(7,0,0)
64500000 instructions simulated : ctaid=(57,0,0) tid=(151,0,0)
64600000 instructions simulated : ctaid=(97,0,0) tid=(231,0,0)
64700000 instructions simulated : ctaid=(11,0,0) tid=(18,0,0)
64800000 instructions simulated : ctaid=(21,0,0) tid=(101,0,0)
64900000 instructions simulated : ctaid=(36,0,0) tid=(48,0,0)
65000000 instructions simulated : ctaid=(84,0,0) tid=(41,0,0)
65100000 instructions simulated : ctaid=(25,0,0) tid=(67,0,0)
65200000 instructions simulated : ctaid=(41,0,0) tid=(148,0,0)
65300000 instructions simulated : ctaid=(64,0,0) tid=(143,0,0)
65400000 instructions simulated : ctaid=(10,0,0) tid=(45,0,0)
65500000 instructions simulated : ctaid=(67,0,0) tid=(97,0,0)
65600000 instructions simulated : ctaid=(85,0,0) tid=(191,0,0)
65700000 instructions simulated : ctaid=(50,0,0) tid=(201,0,0)
65800000 instructions simulated : ctaid=(96,0,0) tid=(40,0,0)
65900000 instructions simulated : ctaid=(24,0,0) tid=(13,0,0)
66000000 instructions simulated : ctaid=(89,0,0) tid=(131,0,0)
66100000 instructions simulated : ctaid=(26,0,0) tid=(43,0,0)
66200000 instructions simulated : ctaid=(88,0,0) tid=(229,0,0)
66300000 instructions simulated : ctaid=(93,0,0) tid=(136,0,0)
66400000 instructions simulated : ctaid=(102,0,0) tid=(215,0,0)
66500000 instructions simulated : ctaid=(80,0,0) tid=(104,0,0)
66600000 instructions simulated : ctaid=(32,0,0) tid=(134,0,0)
66700000 instructions simulated : ctaid=(4,0,0) tid=(2,0,0)
66800000 instructions simulated : ctaid=(63,0,0) tid=(143,0,0)
66900000 instructions simulated : ctaid=(20,0,0) tid=(211,0,0)
67000000 instructions simulated : ctaid=(104,0,0) tid=(55,0,0)
67100000 instructions simulated : ctaid=(36,0,0) tid=(198,0,0)
67200000 instructions simulated : ctaid=(31,0,0) tid=(89,0,0)
67300000 instructions simulated : ctaid=(67,0,0) tid=(44,0,0)
67400000 instructions simulated : ctaid=(62,0,0) tid=(26,0,0)
67500000 instructions simulated : ctaid=(49,0,0) tid=(159,0,0)
67600000 instructions simulated : ctaid=(60,0,0) tid=(207,0,0)
67700000 instructions simulated : ctaid=(65,0,0) tid=(172,0,0)
67800000 instructions simulated : ctaid=(37,0,0) tid=(0,0,0)
67900000 instructions simulated : ctaid=(52,0,0) tid=(155,0,0)
68000000 instructions simulated : ctaid=(17,0,0) tid=(51,0,0)
68100000 instructions simulated : ctaid=(91,0,0) tid=(148,0,0)
68200000 instructions simulated : ctaid=(43,0,0) tid=(111,0,0)
68300000 instructions simulated : ctaid=(11,0,0) tid=(53,0,0)
68400000 instructions simulated : ctaid=(82,0,0) tid=(88,0,0)
68500000 instructions simulated : ctaid=(79,0,0) tid=(95,0,0)
68600000 instructions simulated : ctaid=(86,0,0) tid=(10,0,0)
68700000 instructions simulated : ctaid=(50,0,0) tid=(95,0,0)
68800000 instructions simulated : ctaid=(45,0,0) tid=(96,0,0)
68900000 instructions simulated : ctaid=(20,0,0) tid=(142,0,0)
69000000 instructions simulated : ctaid=(49,0,0) tid=(3,0,0)
cycles: 80000  inst.: 69008600 (ipc=862.6) sim_rate=13467 (inst/sec) elapsed = 0:1:25:24 / Tue May 24 15:48:30 2011
69100000 instructions simulated : ctaid=(98,0,0) tid=(101,0,0)
69200000 instructions simulated : ctaid=(70,0,0) tid=(16,0,0)
69300000 instructions simulated : ctaid=(88,0,0) tid=(140,0,0)
69400000 instructions simulated : ctaid=(38,0,0) tid=(103,0,0)
69500000 instructions simulated : ctaid=(85,0,0) tid=(107,0,0)
69600000 instructions simulated : ctaid=(31,0,0) tid=(25,0,0)
69700000 instructions simulated : ctaid=(19,0,0) tid=(165,0,0)
69800000 instructions simulated : ctaid=(32,0,0) tid=(219,0,0)
69900000 instructions simulated : ctaid=(41,0,0) tid=(229,0,0)
70000000 instructions simulated : ctaid=(50,0,0) tid=(55,0,0)
70100000 instructions simulated : ctaid=(103,0,0) tid=(146,0,0)
70200000 instructions simulated : ctaid=(77,0,0) tid=(38,0,0)
70300000 instructions simulated : ctaid=(104,0,0) tid=(122,0,0)
70400000 instructions simulated : ctaid=(83,0,0) tid=(224,0,0)
70500000 instructions simulated : ctaid=(2,0,0) tid=(39,0,0)
70600000 instructions simulated : ctaid=(77,0,0) tid=(28,0,0)
70700000 instructions simulated : ctaid=(21,0,0) tid=(161,0,0)
70800000 instructions simulated : ctaid=(72,0,0) tid=(8,0,0)
70900000 instructions simulated : ctaid=(18,0,0) tid=(58,0,0)
71000000 instructions simulated : ctaid=(108,0,0) tid=(101,0,0)
71100000 instructions simulated : ctaid=(56,0,0) tid=(188,0,0)
71200000 instructions simulated : ctaid=(64,0,0) tid=(5,0,0)
71300000 instructions simulated : ctaid=(33,0,0) tid=(167,0,0)
71400000 instructions simulated : ctaid=(94,0,0) tid=(37,0,0)
71500000 instructions simulated : ctaid=(90,0,0) tid=(15,0,0)
71600000 instructions simulated : ctaid=(59,0,0) tid=(144,0,0)
71700000 instructions simulated : ctaid=(8,0,0) tid=(209,0,0)
71800000 instructions simulated : ctaid=(95,0,0) tid=(53,0,0)
71900000 instructions simulated : ctaid=(88,0,0) tid=(23,0,0)
72000000 instructions simulated : ctaid=(83,0,0) tid=(156,0,0)
72100000 instructions simulated : ctaid=(36,0,0) tid=(32,0,0)
72200000 instructions simulated : ctaid=(101,0,0) tid=(40,0,0)
72300000 instructions simulated : ctaid=(9,0,0) tid=(55,0,0)
72400000 instructions simulated : ctaid=(63,0,0) tid=(50,0,0)
72500000 instructions simulated : ctaid=(10,0,0) tid=(177,0,0)
72600000 instructions simulated : ctaid=(101,0,0) tid=(239,0,0)
72700000 instructions simulated : ctaid=(104,0,0) tid=(191,0,0)
72800000 instructions simulated : ctaid=(111,0,0) tid=(81,0,0)
72900000 instructions simulated : ctaid=(51,0,0) tid=(233,0,0)
73000000 instructions simulated : ctaid=(8,0,0) tid=(164,0,0)
73100000 instructions simulated : ctaid=(104,0,0) tid=(206,0,0)
73200000 instructions simulated : ctaid=(71,0,0) tid=(161,0,0)
73300000 instructions simulated : ctaid=(109,0,0) tid=(209,0,0)
73400000 instructions simulated : ctaid=(16,0,0) tid=(207,0,0)
73500000 instructions simulated : ctaid=(5,0,0) tid=(175,0,0)
73600000 instructions simulated : ctaid=(50,0,0) tid=(79,0,0)
73700000 instructions simulated : ctaid=(39,0,0) tid=(79,0,0)
73800000 instructions simulated : ctaid=(0,0,0) tid=(143,0,0)
73900000 instructions simulated : ctaid=(101,0,0) tid=(175,0,0)
74000000 instructions simulated : ctaid=(6,0,0) tid=(143,0,0)
74100000 instructions simulated : ctaid=(94,0,0) tid=(207,0,0)
74200000 instructions simulated : ctaid=(35,0,0) tid=(207,0,0)
74300000 instructions simulated : ctaid=(54,0,0) tid=(47,0,0)
74400000 instructions simulated : ctaid=(66,0,0) tid=(47,0,0)
74500000 instructions simulated : ctaid=(42,0,0) tid=(180,0,0)
74600000 instructions simulated : ctaid=(33,0,0) tid=(237,0,0)
74700000 instructions simulated : ctaid=(27,0,0) tid=(82,0,0)
74800000 instructions simulated : ctaid=(109,0,0) tid=(164,0,0)
74900000 instructions simulated : ctaid=(52,0,0) tid=(88,0,0)
75000000 instructions simulated : ctaid=(26,0,0) tid=(176,0,0)
75100000 instructions simulated : ctaid=(3,0,0) tid=(7,0,0)
75200000 instructions simulated : ctaid=(66,0,0) tid=(253,0,0)
75300000 instructions simulated : ctaid=(15,0,0) tid=(85,0,0)
75400000 instructions simulated : ctaid=(75,0,0) tid=(0,0,0)
75500000 instructions simulated : ctaid=(82,0,0) tid=(209,0,0)
75600000 instructions simulated : ctaid=(71,0,0) tid=(123,0,0)
75700000 instructions simulated : ctaid=(63,0,0) tid=(168,0,0)
75800000 instructions simulated : ctaid=(0,0,0) tid=(62,0,0)
75900000 instructions simulated : ctaid=(107,0,0) tid=(223,0,0)
76000000 instructions simulated : ctaid=(77,0,0) tid=(104,0,0)
76100000 instructions simulated : ctaid=(67,0,0) tid=(115,0,0)
76200000 instructions simulated : ctaid=(54,0,0) tid=(118,0,0)
76300000 instructions simulated : ctaid=(80,0,0) tid=(40,0,0)
76400000 instructions simulated : ctaid=(62,0,0) tid=(79,0,0)
76500000 instructions simulated : ctaid=(74,0,0) tid=(134,0,0)
76600000 instructions simulated : ctaid=(28,0,0) tid=(45,0,0)
76700000 instructions simulated : ctaid=(44,0,0) tid=(63,0,0)
76800000 instructions simulated : ctaid=(28,0,0) tid=(151,0,0)
76900000 instructions simulated : ctaid=(85,0,0) tid=(122,0,0)
77000000 instructions simulated : ctaid=(86,0,0) tid=(20,0,0)
77100000 instructions simulated : ctaid=(108,0,0) tid=(143,0,0)
77200000 instructions simulated : ctaid=(55,0,0) tid=(63,0,0)
77300000 instructions simulated : ctaid=(30,0,0) tid=(207,0,0)
77400000 instructions simulated : ctaid=(31,0,0) tid=(15,0,0)
77500000 instructions simulated : ctaid=(96,0,0) tid=(95,0,0)
cycles: 90000  inst.: 77579566 (ipc=862.0) sim_rate=13492 (inst/sec) elapsed = 0:1:35:50 / Tue May 24 15:58:56 2011
77600000 instructions simulated : ctaid=(33,0,0) tid=(184,0,0)
77700000 instructions simulated : ctaid=(100,0,0) tid=(85,0,0)
77800000 instructions simulated : ctaid=(66,0,0) tid=(201,0,0)
77900000 instructions simulated : ctaid=(3,0,0) tid=(88,0,0)
78000000 instructions simulated : ctaid=(25,0,0) tid=(78,0,0)
78100000 instructions simulated : ctaid=(16,0,0) tid=(144,0,0)
78200000 instructions simulated : ctaid=(97,0,0) tid=(31,0,0)
78300000 instructions simulated : ctaid=(64,0,0) tid=(34,0,0)
78400000 instructions simulated : ctaid=(65,0,0) tid=(197,0,0)
78500000 instructions simulated : ctaid=(4,0,0) tid=(184,0,0)
78600000 instructions simulated : ctaid=(56,0,0) tid=(91,0,0)
78700000 instructions simulated : ctaid=(72,0,0) tid=(146,0,0)
78800000 instructions simulated : ctaid=(31,0,0) tid=(108,0,0)
78900000 instructions simulated : ctaid=(39,0,0) tid=(143,0,0)
79000000 instructions simulated : ctaid=(61,0,0) tid=(111,0,0)
79100000 instructions simulated : ctaid=(3,0,0) tid=(166,0,0)
79200000 instructions simulated : ctaid=(37,0,0) tid=(213,0,0)
79300000 instructions simulated : ctaid=(57,0,0) tid=(194,0,0)
79400000 instructions simulated : ctaid=(87,0,0) tid=(215,0,0)
79500000 instructions simulated : ctaid=(11,0,0) tid=(2,0,0)
79600000 instructions simulated : ctaid=(12,0,0) tid=(194,0,0)
79700000 instructions simulated : ctaid=(76,0,0) tid=(141,0,0)
79800000 instructions simulated : ctaid=(51,0,0) tid=(33,0,0)
79900000 instructions simulated : ctaid=(22,0,0) tid=(74,0,0)
80000000 instructions simulated : ctaid=(71,0,0) tid=(205,0,0)
80100000 instructions simulated : ctaid=(74,0,0) tid=(127,0,0)
80200000 instructions simulated : ctaid=(106,0,0) tid=(211,0,0)
80300000 instructions simulated : ctaid=(48,0,0) tid=(136,0,0)
80400000 instructions simulated : ctaid=(36,0,0) tid=(111,0,0)
80500000 instructions simulated : ctaid=(96,0,0) tid=(159,0,0)
80600000 instructions simulated : ctaid=(68,0,0) tid=(4,0,0)
80700000 instructions simulated : ctaid=(13,0,0) tid=(62,0,0)
80800000 instructions simulated : ctaid=(11,0,0) tid=(190,0,0)
80900000 instructions simulated : ctaid=(31,0,0) tid=(181,0,0)
81000000 instructions simulated : ctaid=(52,0,0) tid=(178,0,0)
81100000 instructions simulated : ctaid=(89,0,0) tid=(35,0,0)
81200000 instructions simulated : ctaid=(83,0,0) tid=(121,0,0)
81300000 instructions simulated : ctaid=(60,0,0) tid=(230,0,0)
81400000 instructions simulated : ctaid=(111,0,0) tid=(150,0,0)
81500000 instructions simulated : ctaid=(47,0,0) tid=(77,0,0)
81600000 instructions simulated : ctaid=(100,0,0) tid=(166,0,0)
81700000 instructions simulated : ctaid=(32,0,0) tid=(98,0,0)
81800000 instructions simulated : ctaid=(41,0,0) tid=(124,0,0)
81900000 instructions simulated : ctaid=(73,0,0) tid=(95,0,0)
82000000 instructions simulated : ctaid=(1,0,0) tid=(212,0,0)
82100000 instructions simulated : ctaid=(49,0,0) tid=(161,0,0)
82200000 instructions simulated : ctaid=(73,0,0) tid=(63,0,0)
82300000 instructions simulated : ctaid=(35,0,0) tid=(116,0,0)
82400000 instructions simulated : ctaid=(49,0,0) tid=(195,0,0)
82500000 instructions simulated : ctaid=(110,0,0) tid=(137,0,0)
82600000 instructions simulated : ctaid=(100,0,0) tid=(95,0,0)
82700000 instructions simulated : ctaid=(111,0,0) tid=(71,0,0)
82800000 instructions simulated : ctaid=(49,0,0) tid=(42,0,0)
82900000 instructions simulated : ctaid=(58,0,0) tid=(225,0,0)
83000000 instructions simulated : ctaid=(14,0,0) tid=(89,0,0)
83100000 instructions simulated : ctaid=(43,0,0) tid=(215,0,0)
83200000 instructions simulated : ctaid=(16,0,0) tid=(35,0,0)
83300000 instructions simulated : ctaid=(27,0,0) tid=(43,0,0)
83400000 instructions simulated : ctaid=(1,0,0) tid=(7,0,0)
83500000 instructions simulated : ctaid=(83,0,0) tid=(5,0,0)
83600000 instructions simulated : ctaid=(5,0,0) tid=(32,0,0)
83700000 instructions simulated : ctaid=(68,0,0) tid=(166,0,0)
83800000 instructions simulated : ctaid=(49,0,0) tid=(128,0,0)
83900000 instructions simulated : ctaid=(73,0,0) tid=(176,0,0)
84000000 instructions simulated : ctaid=(27,0,0) tid=(148,0,0)
84100000 instructions simulated : ctaid=(14,0,0) tid=(175,0,0)
84200000 instructions simulated : ctaid=(78,0,0) tid=(16,0,0)
84300000 instructions simulated : ctaid=(21,0,0) tid=(142,0,0)
84400000 instructions simulated : ctaid=(62,0,0) tid=(164,0,0)
84500000 instructions simulated : ctaid=(69,0,0) tid=(42,0,0)
84600000 instructions simulated : ctaid=(9,0,0) tid=(143,0,0)
84700000 instructions simulated : ctaid=(43,0,0) tid=(30,0,0)
84800000 instructions simulated : ctaid=(42,0,0) tid=(179,0,0)
84900000 instructions simulated : ctaid=(54,0,0) tid=(204,0,0)
85000000 instructions simulated : ctaid=(51,0,0) tid=(83,0,0)
85100000 instructions simulated : ctaid=(12,0,0) tid=(179,0,0)
85200000 instructions simulated : ctaid=(107,0,0) tid=(6,0,0)
85300000 instructions simulated : ctaid=(96,0,0) tid=(4,0,0)
85400000 instructions simulated : ctaid=(77,0,0) tid=(46,0,0)
85500000 instructions simulated : ctaid=(33,0,0) tid=(183,0,0)
85600000 instructions simulated : ctaid=(73,0,0) tid=(177,0,0)
85700000 instructions simulated : ctaid=(42,0,0) tid=(129,0,0)
85800000 instructions simulated : ctaid=(71,0,0) tid=(198,0,0)
85900000 instructions simulated : ctaid=(109,0,0) tid=(73,0,0)
86000000 instructions simulated : ctaid=(20,0,0) tid=(37,0,0)
cycles: 100000  inst.: 86077936 (ipc=860.8) sim_rate=13581 (inst/sec) elapsed = 0:1:45:38 / Tue May 24 16:08:44 2011
86100000 instructions simulated : ctaid=(106,0,0) tid=(237,0,0)
86200000 instructions simulated : ctaid=(71,0,0) tid=(239,0,0)
86300000 instructions simulated : ctaid=(4,0,0) tid=(15,0,0)
86400000 instructions simulated : ctaid=(21,0,0) tid=(207,0,0)
86500000 instructions simulated : ctaid=(10,0,0) tid=(207,0,0)
86600000 instructions simulated : ctaid=(111,0,0) tid=(111,0,0)
86700000 instructions simulated : ctaid=(44,0,0) tid=(111,0,0)
86800000 instructions simulated : ctaid=(33,0,0) tid=(111,0,0)
86900000 instructions simulated : ctaid=(22,0,0) tid=(111,0,0)
87000000 instructions simulated : ctaid=(48,0,0) tid=(47,0,0)
87100000 instructions simulated : ctaid=(13,0,0) tid=(143,0,0)
87200000 instructions simulated : ctaid=(58,0,0) tid=(207,0,0)
87300000 instructions simulated : ctaid=(8,0,0) tid=(79,0,0)
87400000 instructions simulated : ctaid=(103,0,0) tid=(119,0,0)
87500000 instructions simulated : ctaid=(67,0,0) tid=(35,0,0)
87600000 instructions simulated : ctaid=(33,0,0) tid=(123,0,0)
87700000 instructions simulated : ctaid=(88,0,0) tid=(0,0,0)
87800000 instructions simulated : ctaid=(87,0,0) tid=(152,0,0)
87900000 instructions simulated : ctaid=(90,0,0) tid=(229,0,0)
88000000 instructions simulated : ctaid=(11,0,0) tid=(53,0,0)
88100000 instructions simulated : ctaid=(47,0,0) tid=(229,0,0)
88200000 instructions simulated : ctaid=(78,0,0) tid=(223,0,0)
88300000 instructions simulated : ctaid=(110,0,0) tid=(215,0,0)
88400000 instructions simulated : ctaid=(92,0,0) tid=(150,0,0)
88500000 instructions simulated : ctaid=(110,0,0) tid=(239,0,0)
88600000 instructions simulated : ctaid=(46,0,0) tid=(96,0,0)
88700000 instructions simulated : ctaid=(67,0,0) tid=(135,0,0)
88800000 instructions simulated : ctaid=(92,0,0) tid=(247,0,0)
88900000 instructions simulated : ctaid=(88,0,0) tid=(181,0,0)
89000000 instructions simulated : ctaid=(76,0,0) tid=(252,0,0)
89100000 instructions simulated : ctaid=(64,0,0) tid=(59,0,0)
89200000 instructions simulated : ctaid=(94,0,0) tid=(202,0,0)
89300000 instructions simulated : ctaid=(48,0,0) tid=(93,0,0)
89400000 instructions simulated : ctaid=(3,0,0) tid=(222,0,0)
89500000 instructions simulated : ctaid=(71,0,0) tid=(99,0,0)
89600000 instructions simulated : ctaid=(89,0,0) tid=(19,0,0)
89700000 instructions simulated : ctaid=(41,0,0) tid=(183,0,0)
89800000 instructions simulated : ctaid=(40,0,0) tid=(189,0,0)
89900000 instructions simulated : ctaid=(101,0,0) tid=(207,0,0)
90000000 instructions simulated : ctaid=(70,0,0) tid=(251,0,0)
90100000 instructions simulated : ctaid=(46,0,0) tid=(163,0,0)
90200000 instructions simulated : ctaid=(75,0,0) tid=(181,0,0)
90300000 instructions simulated : ctaid=(107,0,0) tid=(175,0,0)
90400000 instructions simulated : ctaid=(59,0,0) tid=(231,0,0)
90500000 instructions simulated : ctaid=(104,0,0) tid=(219,0,0)
90600000 instructions simulated : ctaid=(58,0,0) tid=(170,0,0)
90700000 instructions simulated : ctaid=(2,0,0) tid=(239,0,0)
90800000 instructions simulated : ctaid=(108,0,0) tid=(220,0,0)
90900000 instructions simulated : ctaid=(75,0,0) tid=(132,0,0)
91000000 instructions simulated : ctaid=(8,0,0) tid=(127,0,0)
91100000 instructions simulated : ctaid=(66,0,0) tid=(85,0,0)
91200000 instructions simulated : ctaid=(110,0,0) tid=(104,0,0)
91300000 instructions simulated : ctaid=(53,0,0) tid=(98,0,0)
91400000 instructions simulated : ctaid=(23,0,0) tid=(208,0,0)
91500000 instructions simulated : ctaid=(55,0,0) tid=(240,0,0)
91600000 instructions simulated : ctaid=(98,0,0) tid=(167,0,0)
91700000 instructions simulated : ctaid=(110,0,0) tid=(51,0,0)
91800000 instructions simulated : ctaid=(9,0,0) tid=(67,0,0)
91900000 instructions simulated : ctaid=(56,0,0) tid=(15,0,0)
92000000 instructions simulated : ctaid=(49,0,0) tid=(158,0,0)
92100000 instructions simulated : ctaid=(25,0,0) tid=(114,0,0)
92200000 instructions simulated : ctaid=(28,0,0) tid=(0,0,0)
92300000 instructions simulated : ctaid=(33,0,0) tid=(71,0,0)
92400000 instructions simulated : ctaid=(68,0,0) tid=(45,0,0)
92500000 instructions simulated : ctaid=(39,0,0) tid=(21,0,0)
92600000 instructions simulated : ctaid=(25,0,0) tid=(237,0,0)
92700000 instructions simulated : ctaid=(102,0,0) tid=(1,0,0)
92800000 instructions simulated : ctaid=(14,0,0) tid=(235,0,0)
92900000 instructions simulated : ctaid=(38,0,0) tid=(135,0,0)
93000000 instructions simulated : ctaid=(82,0,0) tid=(238,0,0)
93100000 instructions simulated : ctaid=(53,0,0) tid=(88,0,0)
93200000 instructions simulated : ctaid=(105,0,0) tid=(90,0,0)
93300000 instructions simulated : ctaid=(15,0,0) tid=(15,0,0)
93400000 instructions simulated : ctaid=(44,0,0) tid=(47,0,0)
93500000 instructions simulated : ctaid=(36,0,0) tid=(142,0,0)
93600000 instructions simulated : ctaid=(92,0,0) tid=(254,0,0)
93700000 instructions simulated : ctaid=(73,0,0) tid=(212,0,0)
93800000 instructions simulated : ctaid=(40,0,0) tid=(134,0,0)
93900000 instructions simulated : ctaid=(32,0,0) tid=(133,0,0)
94000000 instructions simulated : ctaid=(68,0,0) tid=(237,0,0)
94100000 instructions simulated : ctaid=(67,0,0) tid=(3,0,0)
94200000 instructions simulated : ctaid=(32,0,0) tid=(158,0,0)
94300000 instructions simulated : ctaid=(105,0,0) tid=(214,0,0)
94400000 instructions simulated : ctaid=(24,0,0) tid=(234,0,0)
94500000 instructions simulated : ctaid=(33,0,0) tid=(160,0,0)
94600000 instructions simulated : ctaid=(16,0,0) tid=(129,0,0)
94700000 instructions simulated : ctaid=(20,0,0) tid=(20,0,0)
cycles: 110000  inst.: 94780468 (ipc=861.6) sim_rate=13573 (inst/sec) elapsed = 0:1:56:23 / Tue May 24 16:19:29 2011
94800000 instructions simulated : ctaid=(62,0,0) tid=(159,0,0)
94900000 instructions simulated : ctaid=(64,0,0) tid=(213,0,0)
95000000 instructions simulated : ctaid=(102,0,0) tid=(16,0,0)
95100000 instructions simulated : ctaid=(19,0,0) tid=(93,0,0)
95200000 instructions simulated : ctaid=(27,0,0) tid=(158,0,0)
95300000 instructions simulated : ctaid=(65,0,0) tid=(154,0,0)
95400000 instructions simulated : ctaid=(37,0,0) tid=(98,0,0)
95500000 instructions simulated : ctaid=(87,0,0) tid=(99,0,0)
95600000 instructions simulated : ctaid=(13,0,0) tid=(171,0,0)
95700000 instructions simulated : ctaid=(23,0,0) tid=(11,0,0)
95800000 instructions simulated : ctaid=(87,0,0) tid=(141,0,0)
95900000 instructions simulated : ctaid=(88,0,0) tid=(193,0,0)
96000000 instructions simulated : ctaid=(36,0,0) tid=(33,0,0)
96100000 instructions simulated : ctaid=(63,0,0) tid=(52,0,0)
96200000 instructions simulated : ctaid=(18,0,0) tid=(201,0,0)
96300000 instructions simulated : ctaid=(51,0,0) tid=(95,0,0)
96400000 instructions simulated : ctaid=(10,0,0) tid=(99,0,0)
96500000 instructions simulated : ctaid=(35,0,0) tid=(147,0,0)
96600000 instructions simulated : ctaid=(26,0,0) tid=(150,0,0)
96700000 instructions simulated : ctaid=(47,0,0) tid=(201,0,0)
96800000 instructions simulated : ctaid=(42,0,0) tid=(186,0,0)
96900000 instructions simulated : ctaid=(76,0,0) tid=(74,0,0)
97000000 instructions simulated : ctaid=(71,0,0) tid=(47,0,0)
97100000 instructions simulated : ctaid=(91,0,0) tid=(139,0,0)
97200000 instructions simulated : ctaid=(24,0,0) tid=(73,0,0)
97300000 instructions simulated : ctaid=(18,0,0) tid=(178,0,0)
97400000 instructions simulated : ctaid=(73,0,0) tid=(102,0,0)
97500000 instructions simulated : ctaid=(90,0,0) tid=(198,0,0)
97600000 instructions simulated : ctaid=(8,0,0) tid=(106,0,0)
97700000 instructions simulated : ctaid=(79,0,0) tid=(195,0,0)
97800000 instructions simulated : ctaid=(48,0,0) tid=(129,0,0)
97900000 instructions simulated : ctaid=(85,0,0) tid=(254,0,0)
98000000 instructions simulated : ctaid=(24,0,0) tid=(65,0,0)
98100000 instructions simulated : ctaid=(84,0,0) tid=(172,0,0)
98200000 instructions simulated : ctaid=(103,0,0) tid=(49,0,0)
98300000 instructions simulated : ctaid=(105,0,0) tid=(110,0,0)
98400000 instructions simulated : ctaid=(70,0,0) tid=(119,0,0)
98500000 instructions simulated : ctaid=(15,0,0) tid=(9,0,0)
98600000 instructions simulated : ctaid=(76,0,0) tid=(47,0,0)
98700000 instructions simulated : ctaid=(26,0,0) tid=(99,0,0)
98800000 instructions simulated : ctaid=(36,0,0) tid=(73,0,0)
98900000 instructions simulated : ctaid=(47,0,0) tid=(17,0,0)
99000000 instructions simulated : ctaid=(103,0,0) tid=(216,0,0)
99100000 instructions simulated : ctaid=(48,0,0) tid=(15,0,0)
99200000 instructions simulated : ctaid=(65,0,0) tid=(111,0,0)
99300000 instructions simulated : ctaid=(82,0,0) tid=(207,0,0)
99400000 instructions simulated : ctaid=(99,0,0) tid=(111,0,0)
99500000 instructions simulated : ctaid=(88,0,0) tid=(175,0,0)
99600000 instructions simulated : ctaid=(77,0,0) tid=(207,0,0)
99700000 instructions simulated : ctaid=(10,0,0) tid=(111,0,0)
99800000 instructions simulated : ctaid=(55,0,0) tid=(47,0,0)
99900000 instructions simulated : ctaid=(91,0,0) tid=(143,0,0)
100000000 instructions simulated : ctaid=(107,0,0) tid=(175,0,0)
100100000 instructions simulated : ctaid=(28,0,0) tid=(111,0,0)
100200000 instructions simulated : ctaid=(55,0,0) tid=(143,0,0)
100300000 instructions simulated : ctaid=(88,0,0) tid=(1,0,0)
100400000 instructions simulated : ctaid=(79,0,0) tid=(221,0,0)
100500000 instructions simulated : ctaid=(19,0,0) tid=(46,0,0)
100600000 instructions simulated : ctaid=(17,0,0) tid=(217,0,0)
100700000 instructions simulated : ctaid=(46,0,0) tid=(66,0,0)
100800000 instructions simulated : ctaid=(104,0,0) tid=(25,0,0)
100900000 instructions simulated : ctaid=(83,0,0) tid=(65,0,0)
101000000 instructions simulated : ctaid=(33,0,0) tid=(255,0,0)
