

        *** GPGPU-Sim version 2.1.1b (beta) ***


GPGPU-Sim PTX: __cudaRegisterFunction _Z19dpRadix016A_kernel2ILi1EEvP7double2S1_jj : 0x7fbbc7f9fbf0
GPGPU-Sim PTX: __cudaRegisterFunction _Z19dpRadix016A_kernel2ILin1EEvP7double2S1_jj : 0x7fbbc7f9fca0
GPGPU-Sim PTX: __cudaRegisterFunction _Z18dpRadix016A_kernelILi1EEvP7double2S1_jjjjd : 0x7fbbc7f9f750
GPGPU-Sim PTX: __cudaRegisterFunction _Z18dpRadix016A_kernelILin1EEvP7double2S1_jjjjd : 0x7fbbc7f9f620
GPGPU-Sim PTX: __cudaRegisterFunction _Z19dpRadix008A_kernel2ILi1EEvP7double2S1_jj : 0x7fbbc7f9f1d0
GPGPU-Sim PTX: __cudaRegisterFunction _Z19dpRadix008A_kernel2ILin1EEvP7double2S1_jj : 0x7fbbc7f9f280
GPGPU-Sim PTX: __cudaRegisterFunction _Z18dpRadix008A_kernelILi1EEvP7double2S1_jjjjd : 0x7fbbc7f9ed30
GPGPU-Sim PTX: __cudaRegisterFunction _Z18dpRadix008A_kernelILin1EEvP7double2S1_jjjjd : 0x7fbbc7f9ec00
GPGPU-Sim PTX: __cudaRegisterFunction _Z19dpRadix004A_kernel2ILi1EEvP7double2S1_jj : 0x7fbbc7f9e7b0
GPGPU-Sim PTX: __cudaRegisterFunction _Z19dpRadix004A_kernel2ILin1EEvP7double2S1_jj : 0x7fbbc7f9e860
GPGPU-Sim PTX: __cudaRegisterFunction _Z18dpRadix004A_kernelILi1EEvP7double2S1_jjjjd : 0x7fbbc7f9e310
GPGPU-Sim PTX: __cudaRegisterFunction _Z18dpRadix004A_kernelILin1EEvP7double2S1_jjjjd : 0x7fbbc7f9e1e0
GPGPU-Sim PTX: __cudaRegisterFunction _Z18dpRadix002A_kernelP7double2S0_jjjjd : 0x7fbbc7f9dcb0
GPGPU-Sim PTX: __cudaRegisterFunction _Z25fftSmem2048Kernel_8_4_8_8ILi1EEvP6float2S1_jf : 0x7fbbc7f9d3a0
GPGPU-Sim PTX: __cudaRegisterFunction _Z24fftSmem1024Kernel_8_8_16ILi1EEvP6float2S1_jf : 0x7fbbc7f9d9d0
GPGPU-Sim PTX: __cudaRegisterFunction _Z22fftSmem512Kernel_8_8_8ILi1EEvP6float2S1_jf : 0x7fbbc7f9d920
GPGPU-Sim PTX: __cudaRegisterFunction _Z22fftSmem256Kernel_16_16ILi1EEvP6float2S1_jf : 0x7fbbc7f9d870
GPGPU-Sim PTX: __cudaRegisterFunction _Z22fftSmem128Kernel_8_4_4ILi1EEvP6float2S1_jf : 0x7fbbc7f9d7c0
GPGPU-Sim PTX: __cudaRegisterFunction _Z25fftSmem2048Kernel_8_4_8_8ILin1EEvP6float2S1_jf : 0x7fbbc7f9d710
GPGPU-Sim PTX: __cudaRegisterFunction _Z24fftSmem1024Kernel_8_8_16ILin1EEvP6float2S1_jf : 0x7fbbc7f9d660
GPGPU-Sim PTX: __cudaRegisterFunction _Z22fftSmem512Kernel_8_8_8ILin1EEvP6float2S1_jf : 0x7fbbc7f9d5b0
GPGPU-Sim PTX: __cudaRegisterFunction _Z22fftSmem256Kernel_16_16ILin1EEvP6float2S1_jf : 0x7fbbc7f9d500
GPGPU-Sim PTX: __cudaRegisterFunction _Z22fftSmem128Kernel_8_4_4ILin1EEvP6float2S1_jf : 0x7fbbc7f9d450
GPGPU-Sim PTX: __cudaRegisterFunction _Z18spRadix512C_kernelILi1EEvP6float2S1_jjjjf : 0x7fbbc7f9be30
GPGPU-Sim PTX: __cudaRegisterFunction _Z18spRadix512C_kernelILin1EEvP6float2S1_jjjjf : 0x7fbbc7f9bd00
GPGPU-Sim PTX: in __cudaRegisterTexture:
GPGPU-Sim PTX:   int dim = 1
GPGPU-Sim PTX:   int norm = 0
GPGPU-Sim PTX:   int ext = 0
GPGPU-Sim PTX:   Execution warning: Not finished implementing "void __cudaRegisterTexture(void**, const textureReference*, const void**, const char*, int, int, int)"
GPGPU-Sim PTX: in __cudaRegisterTexture:
GPGPU-Sim PTX:   int dim = 1
GPGPU-Sim PTX:   int norm = 0
GPGPU-Sim PTX:   int ext = 0
GPGPU-Sim PTX:   Execution warning: Not finished implementing "void __cudaRegisterTexture(void**, const textureReference*, const void**, const char*, int, int, int)"
GPGPU-Sim PTX: __cudaRegisterFunction _Z19spRadix256B_kernel2ILi1EEvP6float2S1_jj : 0x7fbbc7f9b7e0
GPGPU-Sim PTX: __cudaRegisterFunction _Z19spRadix256B_kernel2ILin1EEvP6float2S1_jj : 0x7fbbc7f9b890
GPGPU-Sim PTX: __cudaRegisterFunction _Z18spRadix256B_kernelILi1EEvP6float2S1_jjjjf : 0x7fbbc7f9b310
GPGPU-Sim PTX: __cudaRegisterFunction _Z18spRadix256B_kernelILin1EEvP6float2S1_jjjjf : 0x7fbbc7f9b1e0
GPGPU-Sim PTX: in __cudaRegisterTexture:
GPGPU-Sim PTX:   int dim = 1
GPGPU-Sim PTX:   int norm = 0
GPGPU-Sim PTX:   int ext = 0
GPGPU-Sim PTX:   Execution warning: Not finished implementing "void __cudaRegisterTexture(void**, const textureReference*, const void**, const char*, int, int, int)"
GPGPU-Sim PTX: in __cudaRegisterTexture:
GPGPU-Sim PTX:   int dim = 1
GPGPU-Sim PTX:   int norm = 0
GPGPU-Sim PTX:   int ext = 0
GPGPU-Sim PTX:   Execution warning: Not finished implementing "void __cudaRegisterTexture(void**, const textureReference*, const void**, const char*, int, int, int)"
GPGPU-Sim PTX: __cudaRegisterVar: hostVar = 0x7fbbc89b4ec0; deviceAddress = c_Twiddle_16x16o256; deviceName = c_Twiddle_16x16o256
GPGPU-Sim PTX: __cudaRegisterVar: Registering const memory space of 2048 bytes
GPGPU-Sim PTX registering constant c_Twiddle_16x16o256 (2048 bytes) to name mapping
GPGPU-Sim PTX: __cudaRegisterFunction _Z19spRadix128B_kernel2ILi1EEvP6float2S1_jj : 0x7fbbc7f9ac00
GPGPU-Sim PTX: __cudaRegisterFunction _Z19spRadix128B_kernel2ILin1EEvP6float2S1_jj : 0x7fbbc7f9acb0
GPGPU-Sim PTX: __cudaRegisterFunction _Z18spRadix128B_kernelILi1EEvP6float2S1_jjjjf : 0x7fbbc7f9a730
GPGPU-Sim PTX: __cudaRegisterFunction _Z18spRadix128B_kernelILin1EEvP6float2S1_jjjjf : 0x7fbbc7f9a600
GPGPU-Sim PTX: in __cudaRegisterTexture:
GPGPU-Sim PTX:   int dim = 1
GPGPU-Sim PTX:   int norm = 0
GPGPU-Sim PTX:   int ext = 0
GPGPU-Sim PTX:   Execution warning: Not finished implementing "void __cudaRegisterTexture(void**, const textureReference*, const void**, const char*, int, int, int)"
GPGPU-Sim PTX: in __cudaRegisterTexture:
GPGPU-Sim PTX:   int dim = 1
GPGPU-Sim PTX:   int norm = 0
GPGPU-Sim PTX:   int ext = 0
GPGPU-Sim PTX:   Execution warning: Not finished implementing "void __cudaRegisterTexture(void**, const textureReference*, const void**, const char*, int, int, int)"
GPGPU-Sim PTX: __cudaRegisterVar: hostVar = 0x7fbbc89b4980; deviceAddress = c_Twiddle_16x8o128; deviceName = c_Twiddle_16x8o128
GPGPU-Sim PTX: __cudaRegisterVar: Registering const memory space of 1024 bytes
GPGPU-Sim PTX registering constant c_Twiddle_16x8o128 (1024 bytes) to name mapping
GPGPU-Sim PTX: __cudaRegisterFunction _Z19spRadix064B_kernel2ILi1EEvP6float2S1_jj : 0x7fbbc7f9a020
GPGPU-Sim PTX: __cudaRegisterFunction _Z19spRadix064B_kernel2ILin1EEvP6float2S1_jj : 0x7fbbc7f9a0d0
GPGPU-Sim PTX: __cudaRegisterFunction _Z18spRadix064B_kernelILi1EEvP6float2S1_jjjjf : 0x7fbbc7f99b70
GPGPU-Sim PTX: __cudaRegisterFunction _Z18spRadix064B_kernelILin1EEvP6float2S1_jjjjf : 0x7fbbc7f99a40
GPGPU-Sim PTX: __cudaRegisterVar: hostVar = 0x7fbbc89b4640; deviceAddress = c_Twiddle_8x8o64; deviceName = c_Twiddle_8x8o64
GPGPU-Sim PTX: __cudaRegisterVar: Registering const memory space of 512 bytes
GPGPU-Sim PTX registering constant c_Twiddle_8x8o64 (512 bytes) to name mapping
GPGPU-Sim PTX: __cudaRegisterFunction _Z19spRadix032B_kernel2ILi1EEvP6float2S1_jj : 0x7fbbc7f995b0
GPGPU-Sim PTX: __cudaRegisterFunction _Z19spRadix032B_kernel2ILin1EEvP6float2S1_jj : 0x7fbbc7f99660
GPGPU-Sim PTX: __cudaRegisterFunction _Z18spRadix032B_kernelILi1EEvP6float2S1_jjjjf : 0x7fbbc7f99100
GPGPU-Sim PTX: __cudaRegisterFunction _Z18spRadix032B_kernelILin1EEvP6float2S1_jjjjf : 0x7fbbc7f98fd0
GPGPU-Sim PTX: __cudaRegisterVar: hostVar = 0x7fbbc89b44e0; deviceAddress = c_Twiddle_8x4o32; deviceName = c_Twiddle_8x4o32
GPGPU-Sim PTX: __cudaRegisterVar: Registering const memory space of 256 bytes
GPGPU-Sim PTX registering constant c_Twiddle_8x4o32 (256 bytes) to name mapping
GPGPU-Sim PTX: __cudaRegisterFunction _Z18spRadix032A_kernelILi1EEvP6float2S1_jjjjf : 0x7fbbc7f98a10
GPGPU-Sim PTX: __cudaRegisterFunction _Z18spRadix032A_kernelILin1EEvP6float2S1_jjjjf : 0x7fbbc7f988e0
GPGPU-Sim PTX: in __cudaRegisterTexture:
GPGPU-Sim PTX:   int dim = 1
GPGPU-Sim PTX:   int norm = 0
GPGPU-Sim PTX:   int ext = 0
GPGPU-Sim PTX:   Execution warning: Not finished implementing "void __cudaRegisterTexture(void**, const textureReference*, const void**, const char*, int, int, int)"
GPGPU-Sim PTX: in __cudaRegisterTexture:
GPGPU-Sim PTX:   int dim = 1
GPGPU-Sim PTX:   int norm = 0
GPGPU-Sim PTX:   int ext = 0
GPGPU-Sim PTX:   Execution warning: Not finished implementing "void __cudaRegisterTexture(void**, const textureReference*, const void**, const char*, int, int, int)"
GPGPU-Sim PTX: __cudaRegisterFunction _Z19spRadix016B_kernel2ILi1EEvP6float2S1_jj : 0x7fbbc7f983c0
GPGPU-Sim PTX: __cudaRegisterFunction _Z19spRadix016B_kernel2ILin1EEvP6float2S1_jj : 0x7fbbc7f98470
GPGPU-Sim PTX: __cudaRegisterFunction _Z18spRadix016B_kernelILi1EEvP6float2S1_jjjjf : 0x7fbbc7f97f10
GPGPU-Sim PTX: __cudaRegisterFunction _Z18spRadix016B_kernelILin1EEvP6float2S1_jjjjf : 0x7fbbc7f97de0
GPGPU-Sim PTX: __cudaRegisterVar: hostVar = 0x7fbbc89b42e0; deviceAddress = c_Twiddle_4x4o16; deviceName = c_Twiddle_4x4o16
GPGPU-Sim PTX: __cudaRegisterVar: Registering const memory space of 128 bytes
GPGPU-Sim PTX registering constant c_Twiddle_4x4o16 (128 bytes) to name mapping
GPGPU-Sim PTX: __cudaRegisterFunction _Z19spRadix016A_kernel2ILi1EEvP6float2S1_jj : 0x7fbbc7f97950
GPGPU-Sim PTX: __cudaRegisterFunction _Z19spRadix016A_kernel2ILin1EEvP6float2S1_jj : 0x7fbbc7f97a00
GPGPU-Sim PTX: __cudaRegisterFunction _Z18spRadix016A_kernelILi1EEvP6float2S1_jjjjf : 0x7fbbc7f97460
GPGPU-Sim PTX: __cudaRegisterFunction _Z18spRadix016A_kernelILin1EEvP6float2S1_jjjjf : 0x7fbbc7f97330
GPGPU-Sim PTX: in __cudaRegisterTexture:
GPGPU-Sim PTX:   int dim = 1
GPGPU-Sim PTX:   int norm = 0
GPGPU-Sim PTX:   int ext = 0
GPGPU-Sim PTX:   Execution warning: Not finished implementing "void __cudaRegisterTexture(void**, const textureReference*, const void**, const char*, int, int, int)"
GPGPU-Sim PTX: in __cudaRegisterTexture:
GPGPU-Sim PTX:   int dim = 1
GPGPU-Sim PTX:   int norm = 0
GPGPU-Sim PTX:   int ext = 0
GPGPU-Sim PTX:   Execution warning: Not finished implementing "void __cudaRegisterTexture(void**, const textureReference*, const void**, const char*, int, int, int)"
GPGPU-Sim PTX: __cudaRegisterFunction _Z19spRadix008A_kernel2ILi1EEvP6float2S1_jj : 0x7fbbc7f96d80
GPGPU-Sim PTX: __cudaRegisterFunction _Z19spRadix008A_kernel2ILin1EEvP6float2S1_jj : 0x7fbbc7f96e30
GPGPU-Sim PTX: __cudaRegisterFunction _Z18spRadix008A_kernelILi1EEvP6float2S1_jjjjf : 0x7fbbc7f968a0
GPGPU-Sim PTX: __cudaRegisterFunction _Z18spRadix008A_kernelILin1EEvP6float2S1_jjjjf : 0x7fbbc7f96770
GPGPU-Sim PTX: in __cudaRegisterTexture:
GPGPU-Sim PTX:   int dim = 1
GPGPU-Sim PTX:   int norm = 0
GPGPU-Sim PTX:   int ext = 0
GPGPU-Sim PTX:   Execution warning: Not finished implementing "void __cudaRegisterTexture(void**, const textureReference*, const void**, const char*, int, int, int)"
GPGPU-Sim PTX: in __cudaRegisterTexture:
GPGPU-Sim PTX:   int dim = 1
GPGPU-Sim PTX:   int norm = 0
GPGPU-Sim PTX:   int ext = 0
GPGPU-Sim PTX:   Execution warning: Not finished implementing "void __cudaRegisterTexture(void**, const textureReference*, const void**, const char*, int, int, int)"
GPGPU-Sim PTX: __cudaRegisterFunction _Z19spRadix004A_kernel2ILi1EEvP6float2S1_jj : 0x7fbbc7f961c0
GPGPU-Sim PTX: __cudaRegisterFunction _Z19spRadix004A_kernel2ILin1EEvP6float2S1_jj : 0x7fbbc7f96270
GPGPU-Sim PTX: __cudaRegisterFunction _Z18spRadix004A_kernelILi1EEvP6float2S1_jjjjf : 0x7fbbc7f95ce0
GPGPU-Sim PTX: __cudaRegisterFunction _Z18spRadix004A_kernelILin1EEvP6float2S1_jjjjf : 0x7fbbc7f95bb0
GPGPU-Sim PTX: in __cudaRegisterTexture:
GPGPU-Sim PTX:   int dim = 1
GPGPU-Sim PTX:   int norm = 0
GPGPU-Sim PTX:   int ext = 0
GPGPU-Sim PTX:   Execution warning: Not finished implementing "void __cudaRegisterTexture(void**, const textureReference*, const void**, const char*, int, int, int)"
GPGPU-Sim PTX: in __cudaRegisterTexture:
GPGPU-Sim PTX:   int dim = 1
GPGPU-Sim PTX:   int norm = 0
GPGPU-Sim PTX:   int ext = 0
GPGPU-Sim PTX:   Execution warning: Not finished implementing "void __cudaRegisterTexture(void**, const textureReference*, const void**, const char*, int, int, int)"
GPGPU-Sim PTX: __cudaRegisterFunction _Z19spRadix002A_kernel2P6float2S0_jj : 0x7fbbc7f953c0
GPGPU-Sim PTX: __cudaRegisterFunction _Z18spRadix002A_kernelP6float2S0_jjjjf : 0x7fbbc7f95200
GPGPU-Sim PTX: in __cudaRegisterTexture:
GPGPU-Sim PTX:   int dim = 1
GPGPU-Sim PTX:   int norm = 0
GPGPU-Sim PTX:   int ext = 0
GPGPU-Sim PTX:   Execution warning: Not finished implementing "void __cudaRegisterTexture(void**, const textureReference*, const void**, const char*, int, int, int)"
GPGPU-Sim PTX: in __cudaRegisterTexture:
GPGPU-Sim PTX:   int dim = 1
GPGPU-Sim PTX:   int norm = 0
GPGPU-Sim PTX:   int ext = 0
GPGPU-Sim PTX:   Execution warning: Not finished implementing "void __cudaRegisterTexture(void**, const textureReference*, const void**, const char*, int, int, int)"
GPGPU-Sim PTX: __cudaRegisterFunction _Z23DP_c2r_mradix_sp_kernelidPvS_i11tfStride_st : 0x7fbbc7f94db0
GPGPU-Sim PTX: __cudaRegisterShared
GPGPU-Sim PTX: __cudaRegisterVar: hostVar = 0x7fbbc89b3c20; deviceAddress = mrp; deviceName = mrp
GPGPU-Sim PTX: __cudaRegisterVar: Registering const memory space of 392 bytes
GPGPU-Sim PTX registering constant mrp (392 bytes) to name mapping
GPGPU-Sim PTX: __cudaRegisterFunction _Z23DP_c2r_radix7_sp_kernelidPvS_i11tfStride_st : 0x7fbbc7f94b00
GPGPU-Sim PTX: __cudaRegisterShared
GPGPU-Sim PTX: __cudaRegisterFunction _Z23DP_c2r_radix6_sp_kernelidPvS_i11tfStride_st : 0x7fbbc7f94880
GPGPU-Sim PTX: __cudaRegisterShared
GPGPU-Sim PTX: __cudaRegisterFunction _Z23DP_c2r_radix5_sp_kernelidPvS_i11tfStride_st : 0x7fbbc7f94600
GPGPU-Sim PTX: __cudaRegisterShared
GPGPU-Sim PTX: __cudaRegisterFunction _Z23DP_c2r_radix4_sp_kernelidiPvS_i11tfStride_st : 0x7fbbc7f94380
GPGPU-Sim PTX: __cudaRegisterShared
GPGPU-Sim PTX: __cudaRegisterFunction _Z23DP_c2r_radix3_sp_kernelidPvS_i11tfStride_st : 0x7fbbc7f940d0
GPGPU-Sim PTX: __cudaRegisterShared
GPGPU-Sim PTX: __cudaRegisterFunction _Z23DP_c2r_radix2_sp_kernelidiPvS_i11tfStride_st : 0x7fbbc7f93e50
GPGPU-Sim PTX: __cudaRegisterShared
GPGPU-Sim PTX: __cudaRegisterFunction _Z25DP_c2r_radix2_mpgm_kernelidiiPvS_i11tfStride_st : 0x7fbbc7f93a60
GPGPU-Sim PTX: __cudaRegisterFunction _Z25DP_c2r_radix2_mpsm_kernelidiPvS_i11tfStride_st : 0x7fbbc7f93ba0
GPGPU-Sim PTX: __cudaRegisterShared
GPGPU-Sim PTX: __cudaRegisterFunction _Z23DP_r2c_mradix_sp_kernelidPvS_i11tfStride_st : 0x7fbbc7f93730
GPGPU-Sim PTX: __cudaRegisterShared
GPGPU-Sim PTX: __cudaRegisterVar: hostVar = 0x7fbbc89b3880; deviceAddress = mrp; deviceName = mrp
GPGPU-Sim PTX: __cudaRegisterVar: Registering const memory space of 392 bytes
GPGPU-Sim PTX registering constant mrp (392 bytes) to name mapping
GPGPU-Sim PTX: __cudaRegisterFunction _Z23DP_r2c_radix7_sp_kernelidPvS_i11tfStride_st : 0x7fbbc7f93480
GPGPU-Sim PTX: __cudaRegisterShared
GPGPU-Sim PTX: __cudaRegisterFunction _Z23DP_r2c_radix6_sp_kernelidPvS_i11tfStride_st : 0x7fbbc7f93200
GPGPU-Sim PTX: __cudaRegisterShared
GPGPU-Sim PTX: __cudaRegisterFunction _Z23DP_r2c_radix5_sp_kernelidPvS_i11tfStride_st : 0x7fbbc7f92f80
GPGPU-Sim PTX: __cudaRegisterShared
GPGPU-Sim PTX: __cudaRegisterFunction _Z23DP_r2c_radix4_sp_kernelidiPvS_i11tfStride_st : 0x7fbbc7f92d00
GPGPU-Sim PTX: __cudaRegisterShared
GPGPU-Sim PTX: __cudaRegisterFunction _Z23DP_r2c_radix3_sp_kernelidPvS_i11tfStride_st : 0x7fbbc7f92a50
GPGPU-Sim PTX: __cudaRegisterShared
GPGPU-Sim PTX: __cudaRegisterFunction _Z23DP_r2c_radix2_sp_kernelidiPvS_i11tfStride_st : 0x7fbbc7f927d0
GPGPU-Sim PTX: __cudaRegisterShared
GPGPU-Sim PTX: __cudaRegisterFunction _Z25DP_r2c_radix2_mpgm_kernelidiiPvS_i11tfStride_st : 0x7fbbc7f923e0
GPGPU-Sim PTX: __cudaRegisterFunction _Z25DP_r2c_radix2_mpsm_kernelidiPvS_i11tfStride_st : 0x7fbbc7f92520
GPGPU-Sim PTX: __cudaRegisterShared
GPGPU-Sim PTX: __cudaRegisterFunction _Z20DP_c2c_lprime_kernelidPvS_ii11tfStride_st : 0x7fbbc7f91fb0
GPGPU-Sim PTX: __cudaRegisterShared
GPGPU-Sim PTX: in __cudaRegisterTexture:
GPGPU-Sim PTX:   int dim = 1
GPGPU-Sim PTX:   int norm = 0
GPGPU-Sim PTX:   int ext = 0
GPGPU-Sim PTX:   Execution warning: Not finished implementing "void __cudaRegisterTexture(void**, const textureReference*, const void**, const char*, int, int, int)"
GPGPU-Sim PTX: in __cudaRegisterTexture:
GPGPU-Sim PTX:   int dim = 1
GPGPU-Sim PTX:   int norm = 0
GPGPU-Sim PTX:   int ext = 0
GPGPU-Sim PTX:   Execution warning: Not finished implementing "void __cudaRegisterTexture(void**, const textureReference*, const void**, const char*, int, int, int)"
GPGPU-Sim PTX: __cudaRegisterFunction _Z24DP_c2c_mrtable_r5_kernelidPvS_i11tfStride_st : 0x7fbbc7f91860
GPGPU-Sim PTX: __cudaRegisterFunction _Z24DP_c2c_mrtable_r4_kernelidPvS_i11tfStride_st : 0x7fbbc7f91970
GPGPU-Sim PTX: __cudaRegisterFunction _Z24DP_c2c_mrtable_r3_kernelidPvS_i11tfStride_st : 0x7fbbc7f91a80
GPGPU-Sim PTX: __cudaRegisterFunction _Z24DP_c2c_mrtable_r2_kernelidPvS_i11tfStride_st : 0x7fbbc7f91b90
GPGPU-Sim PTX: __cudaRegisterShared
GPGPU-Sim PTX: __cudaRegisterVar: hostVar = 0x7fbbc89b33a0; deviceAddress = mrt; deviceName = mrt
GPGPU-Sim PTX: __cudaRegisterVar: Registering const memory space of 392 bytes
GPGPU-Sim PTX registering constant mrt (392 bytes) to name mapping
GPGPU-Sim PTX: __cudaRegisterFunction _Z23DP_c2c_mradix_r7_kernelidPvS_i11tfStride_stii : 0x7fbbc7f914a0
GPGPU-Sim PTX: __cudaRegisterShared
GPGPU-Sim PTX: __cudaRegisterVar: hostVar = 0x7fbbc89b31c0; deviceAddress = mrp; deviceName = mrp
GPGPU-Sim PTX: __cudaRegisterVar: Registering const memory space of 392 bytes
GPGPU-Sim PTX registering constant mrp (392 bytes) to name mapping
GPGPU-Sim PTX: __cudaRegisterFunction _Z23DP_c2c_mradix_r5_kernelidPvS_i11tfStride_stii : 0x7fbbc7f91170
GPGPU-Sim PTX: __cudaRegisterShared
GPGPU-Sim PTX: __cudaRegisterVar: hostVar = 0x7fbbc89b2fe0; deviceAddress = mrp; deviceName = mrp
GPGPU-Sim PTX: __cudaRegisterVar: Registering const memory space of 392 bytes
GPGPU-Sim PTX registering constant mrp (392 bytes) to name mapping
GPGPU-Sim PTX: __cudaRegisterFunction _Z23DP_c2c_mradix_r3_kernelidPvS_i11tfStride_stii : 0x7fbbc7f90e40
GPGPU-Sim PTX: __cudaRegisterShared
GPGPU-Sim PTX: __cudaRegisterVar: hostVar = 0x7fbbc89b2e00; deviceAddress = mrp; deviceName = mrp
GPGPU-Sim PTX: __cudaRegisterVar: Registering const memory space of 392 bytes
GPGPU-Sim PTX registering constant mrp (392 bytes) to name mapping
GPGPU-Sim PTX: __cudaRegisterFunction _Z23DP_c2c_mradix_r2_kernelidPvS_i11tfStride_stii : 0x7fbbc7f90b10
GPGPU-Sim PTX: __cudaRegisterShared
GPGPU-Sim PTX: __cudaRegisterVar: hostVar = 0x7fbbc89b2c20; deviceAddress = mrp; deviceName = mrp
GPGPU-Sim PTX: __cudaRegisterVar: Registering const memory space of 392 bytes
GPGPU-Sim PTX registering constant mrp (392 bytes) to name mapping
GPGPU-Sim PTX: __cudaRegisterFunction _Z23DP_c2c_mradix_sp_kernelidPvS_i11tfStride_st : 0x7fbbc7f907f0
GPGPU-Sim PTX: __cudaRegisterShared
GPGPU-Sim PTX: __cudaRegisterVar: hostVar = 0x7fbbc89b2a40; deviceAddress = mrp; deviceName = mrp
GPGPU-Sim PTX: __cudaRegisterVar: Registering const memory space of 392 bytes
GPGPU-Sim PTX registering constant mrp (392 bytes) to name mapping
GPGPU-Sim PTX: __cudaRegisterFunction _Z23DP_c2c_radix7_sp_kernelidPvS_i11tfStride_st : 0x7fbbc7f90540
GPGPU-Sim PTX: __cudaRegisterShared
GPGPU-Sim PTX: __cudaRegisterFunction _Z23DP_c2c_radix6_sp_kernelidPvS_i11tfStride_st : 0x7fbbc7f902c0
GPGPU-Sim PTX: __cudaRegisterShared
GPGPU-Sim PTX: __cudaRegisterFunction _Z23DP_c2c_radix5_sp_kernelidPvS_i11tfStride_st : 0x7fbbc7f90040
GPGPU-Sim PTX: __cudaRegisterShared
GPGPU-Sim PTX: __cudaRegisterFunction _Z23DP_c2c_radix4_sp_kernelidiPvS_i11tfStride_st : 0x7fbbc7f8fdc0
GPGPU-Sim PTX: __cudaRegisterShared
GPGPU-Sim PTX: __cudaRegisterFunction _Z23DP_c2c_radix3_sp_kernelidPvS_i11tfStride_st : 0x7fbbc7f8fb10
GPGPU-Sim PTX: __cudaRegisterShared
GPGPU-Sim PTX: __cudaRegisterFunction _Z23DP_c2c_radix2_sp_kernelidiPvS_i11tfStride_st : 0x7fbbc7f8f890
GPGPU-Sim PTX: __cudaRegisterShared
GPGPU-Sim PTX: __cudaRegisterFunction _Z25DP_c2c_radix2_mpgm_kernelidiiPvS_i11tfStride_st : 0x7fbbc7f8f4a0
GPGPU-Sim PTX: __cudaRegisterFunction _Z25DP_c2c_radix2_mpsm_kernelidiPvS_i11tfStride_st : 0x7fbbc7f8f5e0
GPGPU-Sim PTX: __cudaRegisterShared
GPGPU-Sim PTX: __cudaRegisterFunction _Z23DP_c2c_radixM_mp_kernelidPvS_iiiii11tfStride_st : 0x7fbbc7f8e640
GPGPU-Sim PTX: __cudaRegisterFunction _Z23DP_c2c_radix7_mp_kernelidPvS_iiiii11tfStride_st : 0x7fbbc7f8e7f0
GPGPU-Sim PTX: __cudaRegisterFunction _Z23DP_c2c_radix6_mp_kernelidPvS_iiiii11tfStride_st : 0x7fbbc7f8e9a0
GPGPU-Sim PTX: __cudaRegisterFunction _Z23DP_c2c_radix5_mp_kernelidPvS_iiiii11tfStride_st : 0x7fbbc7f8eb50
GPGPU-Sim PTX: __cudaRegisterFunction _Z23DP_c2c_radix4_mp_kernelidPvS_iiiii11tfStride_st : 0x7fbbc7f8ed00
GPGPU-Sim PTX: __cudaRegisterFunction _Z23DP_c2c_radix3_mp_kernelidPvS_iiiii11tfStride_st : 0x7fbbc7f8eeb0
GPGPU-Sim PTX: __cudaRegisterFunction _Z23DP_c2c_radix2_mp_kernelidPvS_iiiii11tfStride_st : 0x7fbbc7f8f060
GPGPU-Sim PTX: __cudaRegisterShared
GPGPU-Sim PTX: in __cudaRegisterTexture:
GPGPU-Sim PTX:   int dim = 1
GPGPU-Sim PTX:   int norm = 0
GPGPU-Sim PTX:   int ext = 0
GPGPU-Sim PTX:   Execution warning: Not finished implementing "void __cudaRegisterTexture(void**, const textureReference*, const void**, const char*, int, int, int)"
GPGPU-Sim PTX: in __cudaRegisterTexture:
GPGPU-Sim PTX:   int dim = 1
GPGPU-Sim PTX:   int norm = 0
GPGPU-Sim PTX:   int ext = 0
GPGPU-Sim PTX:   Execution warning: Not finished implementing "void __cudaRegisterTexture(void**, const textureReference*, const void**, const char*, int, int, int)"
GPGPU-Sim PTX: __cudaRegisterFunction _Z23DP_c2c_transpose_kerneliiiiiiPvS_ : 0x7fbbc7f8e030
GPGPU-Sim PTX: __cudaRegisterShared
GPGPU-Sim PTX: __cudaRegisterFunction _Z21DP_c2r_copy_1d_kerneliPvS_11tfStride_st : 0x7fbbc7f8d6a0
GPGPU-Sim PTX: __cudaRegisterFunction _Z21DP_r2c_copy_1d_kerneliPvS_11tfStride_st : 0x7fbbc7f8d770
GPGPU-Sim PTX: __cudaRegisterFunction _Z22DP_c2ch_copy_1d_kerneliPvS_11tfStride_st : 0x7fbbc7f8d840
GPGPU-Sim PTX: __cudaRegisterFunction _Z22DP_c2cf_copy_1d_kerneliPvS_11tfStride_st : 0x7fbbc7f8d910
GPGPU-Sim PTX: __cudaRegisterFunction _Z21DP_c2r_copy_2d_kerneliPvS_11tfStride_st : 0x7fbbc7f8d9e0
GPGPU-Sim PTX: __cudaRegisterFunction _Z21DP_r2c_copy_2d_kerneliPvS_11tfStride_st : 0x7fbbc7f8dab0
GPGPU-Sim PTX: __cudaRegisterFunction _Z22DP_c2ch_copy_2d_kerneliPvS_11tfStride_st : 0x7fbbc7f8db80
GPGPU-Sim PTX: __cudaRegisterFunction _Z22DP_c2cf_copy_2d_kerneliPvS_11tfStride_st : 0x7fbbc7f8dc50
GPGPU-Sim PTX: __cudaRegisterShared
GPGPU-Sim PTX: in __cudaRegisterTexture:
GPGPU-Sim PTX:   int dim = 1
GPGPU-Sim PTX:   int norm = 0
GPGPU-Sim PTX:   int ext = 0
GPGPU-Sim PTX:   Execution warning: Not finished implementing "void __cudaRegisterTexture(void**, const textureReference*, const void**, const char*, int, int, int)"
GPGPU-Sim PTX: in __cudaRegisterTexture:
GPGPU-Sim PTX:   int dim = 1
GPGPU-Sim PTX:   int norm = 0
GPGPU-Sim PTX:   int ext = 0
GPGPU-Sim PTX:   Execution warning: Not finished implementing "void __cudaRegisterTexture(void**, const textureReference*, const void**, const char*, int, int, int)"
GPGPU-Sim PTX: __cudaRegisterFunction _Z21DP_c2c_twiddle_kernelidPvS_ii11tfStride_st : 0x7fbbc7f8d110
GPGPU-Sim PTX: __cudaRegisterShared
GPGPU-Sim PTX: __cudaRegisterFunction _Z23SP_c2r_mradix_sp_kernelifPvS_i11tfStride_st : 0x7fbbc7f8ce40
GPGPU-Sim PTX: __cudaRegisterShared
GPGPU-Sim PTX: __cudaRegisterVar: hostVar = 0x7fbbc89b2360; deviceAddress = mrp; deviceName = mrp
GPGPU-Sim PTX: __cudaRegisterVar: Registering const memory space of 392 bytes
GPGPU-Sim PTX registering constant mrp (392 bytes) to name mapping
GPGPU-Sim PTX: __cudaRegisterFunction _Z23SP_c2r_radix7_sp_kernelifPvS_i11tfStride_st : 0x7fbbc7f8cb90
GPGPU-Sim PTX: __cudaRegisterShared
GPGPU-Sim PTX: __cudaRegisterFunction _Z23SP_c2r_radix6_sp_kernelifPvS_i11tfStride_st : 0x7fbbc7f8c910
GPGPU-Sim PTX: __cudaRegisterShared
GPGPU-Sim PTX: __cudaRegisterFunction _Z23SP_c2r_radix5_sp_kernelifPvS_i11tfStride_st : 0x7fbbc7f8c690
GPGPU-Sim PTX: __cudaRegisterShared
GPGPU-Sim PTX: __cudaRegisterFunction _Z23SP_c2r_radix3_sp_kernelifPvS_i11tfStride_st : 0x7fbbc7f8c410
GPGPU-Sim PTX: __cudaRegisterShared
GPGPU-Sim PTX: __cudaRegisterFunction _Z23SP_c2r_radix4_sp_kernelifiPvS_i11tfStride_st : 0x7fbbc7f8c190
GPGPU-Sim PTX: __cudaRegisterShared
GPGPU-Sim PTX: __cudaRegisterFunction _Z23SP_c2r_radix2_sp_kernelifiPvS_i11tfStride_st : 0x7fbbc7f8bee0
GPGPU-Sim PTX: __cudaRegisterShared
GPGPU-Sim PTX: __cudaRegisterFunction _Z25SP_c2r_radix2_mpgm_kernelifiiPvS_i11tfStride_st : 0x7fbbc7f8baf0
GPGPU-Sim PTX: __cudaRegisterFunction _Z25SP_c2r_radix2_mpsm_kernelifiPvS_i11tfStride_st : 0x7fbbc7f8bc30
GPGPU-Sim PTX: __cudaRegisterShared
GPGPU-Sim PTX: __cudaRegisterFunction _Z23SP_r2c_mradix_sp_kernelifPvS_i11tfStride_st : 0x7fbbc7f8b7c0
GPGPU-Sim PTX: __cudaRegisterShared
GPGPU-Sim PTX: __cudaRegisterVar: hostVar = 0x7fbbc89b1fc0; deviceAddress = mrp; deviceName = mrp
GPGPU-Sim PTX: __cudaRegisterVar: Registering const memory space of 392 bytes
GPGPU-Sim PTX registering constant mrp (392 bytes) to name mapping
GPGPU-Sim PTX: __cudaRegisterFunction _Z23SP_r2c_radix7_sp_kernelifPvS_i11tfStride_st : 0x7fbbc7f8b510
GPGPU-Sim PTX: __cudaRegisterShared
GPGPU-Sim PTX: __cudaRegisterFunction _Z23SP_r2c_radix6_sp_kernelifPvS_i11tfStride_st : 0x7fbbc7f8b290
GPGPU-Sim PTX: __cudaRegisterShared
GPGPU-Sim PTX: __cudaRegisterFunction _Z23SP_r2c_radix5_sp_kernelifPvS_i11tfStride_st : 0x7fbbc7f8b010
GPGPU-Sim PTX: __cudaRegisterShared
GPGPU-Sim PTX: __cudaRegisterFunction _Z23SP_r2c_radix4_sp_kernelifiPvS_i11tfStride_st : 0x7fbbc7f8ad90
GPGPU-Sim PTX: __cudaRegisterShared
GPGPU-Sim PTX: __cudaRegisterFunction _Z23SP_r2c_radix3_sp_kernelifPvS_i11tfStride_st : 0x7fbbc7f8aae0
GPGPU-Sim PTX: __cudaRegisterShared
GPGPU-Sim PTX: __cudaRegisterFunction _Z23SP_r2c_radix2_sp_kernelifiPvS_i11tfStride_st : 0x7fbbc7f8a860
GPGPU-Sim PTX: __cudaRegisterShared
GPGPU-Sim PTX: __cudaRegisterFunction _Z25SP_r2c_radix2_mpgm_kernelifiiPvS_i11tfStride_st : 0x7fbbc7f8a470
GPGPU-Sim PTX: __cudaRegisterFunction _Z25SP_r2c_radix2_mpsm_kernelifiPvS_i11tfStride_st : 0x7fbbc7f8a5b0
GPGPU-Sim PTX: __cudaRegisterShared
GPGPU-Sim PTX: __cudaRegisterFunction _Z20SP_c2c_lprime_kernelifPvS_ii11tfStride_st : 0x7fbbc7f8a040
GPGPU-Sim PTX: __cudaRegisterShared
GPGPU-Sim PTX: in __cudaRegisterTexture:
GPGPU-Sim PTX:   int dim = 1
GPGPU-Sim PTX:   int norm = 0
GPGPU-Sim PTX:   int ext = 0
GPGPU-Sim PTX:   Execution warning: Not finished implementing "void __cudaRegisterTexture(void**, const textureReference*, const void**, const char*, int, int, int)"
GPGPU-Sim PTX: in __cudaRegisterTexture:
GPGPU-Sim PTX:   int dim = 1
GPGPU-Sim PTX:   int norm = 0
GPGPU-Sim PTX:   int ext = 0
GPGPU-Sim PTX:   Execution warning: Not finished implementing "void __cudaRegisterTexture(void**, const textureReference*, const void**, const char*, int, int, int)"
GPGPU-Sim PTX: __cudaRegisterFunction _Z24SP_c2c_mrtable_r5_kernelifPvS_i11tfStride_st : 0x7fbbc7f89900
GPGPU-Sim PTX: __cudaRegisterFunction _Z24SP_c2c_mrtable_r4_kernelifPvS_i11tfStride_st : 0x7fbbc7f89a10
GPGPU-Sim PTX: __cudaRegisterFunction _Z24SP_c2c_mrtable_r3_kernelifPvS_i11tfStride_st : 0x7fbbc7f89b20
GPGPU-Sim PTX: __cudaRegisterFunction _Z24SP_c2c_mrtable_r2_kernelifPvS_i11tfStride_st : 0x7fbbc7f89c30
GPGPU-Sim PTX: __cudaRegisterShared
GPGPU-Sim PTX: __cudaRegisterVar: hostVar = 0x7fbbc89b1ae0; deviceAddress = mrt; deviceName = mrt
GPGPU-Sim PTX: __cudaRegisterVar: Registering const memory space of 392 bytes
GPGPU-Sim PTX registering constant mrt (392 bytes) to name mapping
GPGPU-Sim PTX: __cudaRegisterFunction _Z23SP_c2c_mradix_r7_kernelifPvS_i11tfStride_stii : 0x7fbbc7f89540
GPGPU-Sim PTX: __cudaRegisterShared
GPGPU-Sim PTX: __cudaRegisterVar: hostVar = 0x7fbbc89b1900; deviceAddress = mrp; deviceName = mrp
GPGPU-Sim PTX: __cudaRegisterVar: Registering const memory space of 392 bytes
GPGPU-Sim PTX registering constant mrp (392 bytes) to name mapping
GPGPU-Sim PTX: __cudaRegisterFunction _Z23SP_c2c_mradix_r5_kernelifPvS_i11tfStride_stii : 0x7fbbc7f89210
GPGPU-Sim PTX: __cudaRegisterShared
GPGPU-Sim PTX: __cudaRegisterVar: hostVar = 0x7fbbc89b1720; deviceAddress = mrp; deviceName = mrp
GPGPU-Sim PTX: __cudaRegisterVar: Registering const memory space of 392 bytes
GPGPU-Sim PTX registering constant mrp (392 bytes) to name mapping
GPGPU-Sim PTX: __cudaRegisterFunction _Z23SP_c2c_mradix_r3_kernelifPvS_i11tfStride_stii : 0x7fbbc7f88ee0
GPGPU-Sim PTX: __cudaRegisterShared
GPGPU-Sim PTX: __cudaRegisterVar: hostVar = 0x7fbbc89b1540; deviceAddress = mrp; deviceName = mrp
GPGPU-Sim PTX: __cudaRegisterVar: Registering const memory space of 392 bytes
GPGPU-Sim PTX registering constant mrp (392 bytes) to name mapping
GPGPU-Sim PTX: __cudaRegisterFunction _Z23SP_c2c_mradix_r2_kernelifPvS_i11tfStride_stii : 0x7fbbc7f88bb0
GPGPU-Sim PTX: __cudaRegisterShared
GPGPU-Sim PTX: __cudaRegisterVar: hostVar = 0x7fbbc89b1360; deviceAddress = mrp; deviceName = mrp
GPGPU-Sim PTX: __cudaRegisterVar: Registering const memory space of 392 bytes
GPGPU-Sim PTX registering constant mrp (392 bytes) to name mapping
GPGPU-Sim PTX: __cudaRegisterFunction _Z23SP_c2c_mradix_sp_kernelifPvS_i11tfStride_st : 0x7fbbc7f88890
GPGPU-Sim PTX: __cudaRegisterShared
GPGPU-Sim PTX: __cudaRegisterVar: hostVar = 0x7fbbc89b1180; deviceAddress = mrp; deviceName = mrp
GPGPU-Sim PTX: __cudaRegisterVar: Registering const memory space of 392 bytes
GPGPU-Sim PTX registering constant mrp (392 bytes) to name mapping
GPGPU-Sim PTX: __cudaRegisterFunction _Z23SP_c2c_radix7_sp_kernelifPvS_i11tfStride_st : 0x7fbbc7f885e0
GPGPU-Sim PTX: __cudaRegisterShared
GPGPU-Sim PTX: __cudaRegisterFunction _Z23SP_c2c_radix6_sp_kernelifPvS_i11tfStride_st : 0x7fbbc7f88360
GPGPU-Sim PTX: __cudaRegisterShared
GPGPU-Sim PTX: __cudaRegisterFunction _Z23SP_c2c_radix5_sp_kernelifPvS_i11tfStride_st : 0x7fbbc7f880e0
GPGPU-Sim PTX: __cudaRegisterShared
GPGPU-Sim PTX: __cudaRegisterFunction _Z23SP_c2c_radix4_sp_kernelifiPvS_i11tfStride_st : 0x7fbbc7f87e60
GPGPU-Sim PTX: __cudaRegisterShared
GPGPU-Sim PTX: __cudaRegisterFunction _Z23SP_c2c_radix3_sp_kernelifPvS_i11tfStride_st : 0x7fbbc7f87bb0
GPGPU-Sim PTX: __cudaRegisterShared
GPGPU-Sim PTX: __cudaRegisterFunction _Z23SP_c2c_radix2_sp_kernelifiPvS_i11tfStride_st : 0x7fbbc7f87930
GPGPU-Sim PTX: __cudaRegisterShared
GPGPU-Sim PTX: __cudaRegisterFunction _Z25SP_c2c_radix2_mpgm_kernelifiiPvS_i11tfStride_st : 0x7fbbc7f87540
GPGPU-Sim PTX: __cudaRegisterFunction _Z25SP_c2c_radix2_mpsm_kernelifiPvS_i11tfStride_st : 0x7fbbc7f87680
GPGPU-Sim PTX: __cudaRegisterShared
GPGPU-Sim PTX: __cudaRegisterFunction _Z23SP_c2c_radixM_mp_kernelifPvS_iiiii11tfStride_st : 0x7fbbc7f866e0
GPGPU-Sim PTX: __cudaRegisterFunction _Z23SP_c2c_radix7_mp_kernelifPvS_iiiii11tfStride_st : 0x7fbbc7f86890
GPGPU-Sim PTX: __cudaRegisterFunction _Z23SP_c2c_radix6_mp_kernelifPvS_iiiii11tfStride_st : 0x7fbbc7f86a40
GPGPU-Sim PTX: __cudaRegisterFunction _Z23SP_c2c_radix5_mp_kernelifPvS_iiiii11tfStride_st : 0x7fbbc7f86bf0
GPGPU-Sim PTX: __cudaRegisterFunction _Z23SP_c2c_radix4_mp_kernelifPvS_iiiii11tfStride_st : 0x7fbbc7f86da0
GPGPU-Sim PTX: __cudaRegisterFunction _Z23SP_c2c_radix3_mp_kernelifPvS_iiiii11tfStride_st : 0x7fbbc7f86f50
GPGPU-Sim PTX: __cudaRegisterFunction _Z23SP_c2c_radix2_mp_kernelifPvS_iiiii11tfStride_st : 0x7fbbc7f87100
GPGPU-Sim PTX: __cudaRegisterShared
GPGPU-Sim PTX: in __cudaRegisterTexture:
GPGPU-Sim PTX:   int dim = 1
GPGPU-Sim PTX:   int norm = 0
GPGPU-Sim PTX:   int ext = 0
GPGPU-Sim PTX:   Execution warning: Not finished implementing "void __cudaRegisterTexture(void**, const textureReference*, const void**, const char*, int, int, int)"
GPGPU-Sim PTX: in __cudaRegisterTexture:
GPGPU-Sim PTX:   int dim = 1
GPGPU-Sim PTX:   int norm = 0
GPGPU-Sim PTX:   int ext = 0
GPGPU-Sim PTX:   Execution warning: Not finished implementing "void __cudaRegisterTexture(void**, const textureReference*, const void**, const char*, int, int, int)"
GPGPU-Sim PTX: __cudaRegisterFunction _Z23SP_c2c_transpose_kerneliiiiiiPvS_ : 0x7fbbc7f860e0
GPGPU-Sim PTX: __cudaRegisterShared
GPGPU-Sim PTX: __cudaRegisterFunction _Z21SP_c2r_copy_1d_kerneliPvS_11tfStride_st : 0x7fbbc7f85750
GPGPU-Sim PTX: __cudaRegisterFunction _Z21SP_r2c_copy_1d_kerneliPvS_11tfStride_st : 0x7fbbc7f85820
GPGPU-Sim PTX: __cudaRegisterFunction _Z22SP_c2ch_copy_1d_kerneliPvS_11tfStride_st : 0x7fbbc7f858f0
GPGPU-Sim PTX: __cudaRegisterFunction _Z22SP_c2cf_copy_1d_kerneliPvS_11tfStride_st : 0x7fbbc7f859c0
GPGPU-Sim PTX: __cudaRegisterFunction _Z21SP_c2r_copy_2d_kerneliPvS_11tfStride_st : 0x7fbbc7f85a90
GPGPU-Sim PTX: __cudaRegisterFunction _Z21SP_r2c_copy_2d_kerneliPvS_11tfStride_st : 0x7fbbc7f85b60
GPGPU-Sim PTX: __cudaRegisterFunction _Z22SP_c2ch_copy_2d_kerneliPvS_11tfStride_st : 0x7fbbc7f85c30
GPGPU-Sim PTX: __cudaRegisterFunction _Z22SP_c2cf_copy_2d_kerneliPvS_11tfStride_st : 0x7fbbc7f85d00
GPGPU-Sim PTX: __cudaRegisterShared
GPGPU-Sim PTX: in __cudaRegisterTexture:
GPGPU-Sim PTX:   int dim = 1
GPGPU-Sim PTX:   int norm = 0
GPGPU-Sim PTX:   int ext = 0
GPGPU-Sim PTX:   Execution warning: Not finished implementing "void __cudaRegisterTexture(void**, const textureReference*, const void**, const char*, int, int, int)"
GPGPU-Sim PTX: in __cudaRegisterTexture:
GPGPU-Sim PTX:   int dim = 1
GPGPU-Sim PTX:   int norm = 0
GPGPU-Sim PTX:   int ext = 0
GPGPU-Sim PTX:   Execution warning: Not finished implementing "void __cudaRegisterTexture(void**, const textureReference*, const void**, const char*, int, int, int)"
GPGPU-Sim PTX: __cudaRegisterFunction _Z21SP_c2c_twiddle_kernelifPvS_ii11tfStride_st : 0x7fbbc7f851d0
GPGPU-Sim PTX: __cudaRegisterShared
GPGPU-Sim PTX: __cudaRegisterFunction _Z27ComplexPointwiseMulAndScaleP6float2PKS_if : 0x403f70
GPGPU-Sim PTX: simulation mode 0 (can change with PTX_SIM_MODE_FUNC environment variable:
               1=functional simulation only, 0=detailed performance simulator)
GPGPU-Sim: Configuration options:

-network_mode                           1 # Interconnection network mode
-inter_config_file   icnt_config_quadro_islip.txt # Interconnection network config file
-save_embedded_ptx                      0 # saves ptx files embedded in binary as <n>.ptx
-gpgpu_simd_model                       1 # 0 = no recombination, 1 = post-dominator, 2 = MIMD, 3 = dynamic warp formation
-gpgpu_dram_scheduler                    1 # 0 = fifo (default), 1 = fast ideal
-gpgpu_max_cycle                        0 # terminates gpu simulation early (0 = no limit)
-gpgpu_max_insn                         0 # terminates gpu simulation early (0 = no limit)
-gpgpu_tex_cache:l1             64:64:2:L # per-shader L1 texture cache  (READ-ONLY) config, i.e., {<nsets>:<linesize>:<assoc>:<repl>|none}
-gpgpu_const_cache:l1            64:64:2:L # per-shader L1 constant memory cache  (READ-ONLY) config, i.e., {<nsets>:<linesize>:<assoc>:<repl>|none}
-gpgpu_no_dl1                           1 # no dl1 cache (voids -gpgpu_cache:dl1 option)
-gpgpu_cache:dl1               128:64:4:L # shader L1 data cache config, i.e., {<nsets>:<bsize>:<assoc>:<repl>|none}
-gpgpu_cache:dl2                     NULL # unified banked L2 data cache config, i.e., {<nsets>:<bsize>:<assoc>:<repl>|none}; disabled by default
-gpgpu_perfect_mem                      0 # enable perfect memory mode (no cache miss)
-gpgpu_shader_core_pipeline           1024:32:32 # shader core pipeline config, i.e., {<nthread>:<warpsize>:<pipe_simd_width>}
-gpgpu_shader_registers                16384 # Number of registers per shader core. Limits number of concurrent CTAs. (default 8192)
-gpgpu_shader_cta                       8 # Maximum number of concurrent CTAs in shader (default 8)
-gpgpu_n_shader                        30 # number of shaders in gpu
-gpgpu_n_mem                            8 # number of memory modules (e.g. memory controllers) in gpu
-gpgpu_n_mem_per_ctrlr                    2 # number of memory chips per memory controller
-gpgpu_runtime_stat                  1000 # display runtime statistics such as dram utilization {<freq>:<flag>}
-gpgpu_dwf_heuristic                    0 # DWF scheduling heuristic: 0 = majority, 1 = minority, 2 = timestamp, 3 = pdom priority, 4 = pc-based, 5 = max-heap
-gpgpu_reg_bankconflict                    0 # Check for bank conflict in the pipeline
-gpgpu_dwf_regbk                        1 # Have dwf scheduler to avoid bank conflict
-gpgpu_memlatency_stat                   14 # track and display latency statistics 0x2 enables MC, 0x4 enables queue logs
-gpgpu_mshr_per_thread                    1 # Number of MSHRs per thread
-gpgpu_interwarp_mshr_merge                    6 # interwarp coalescing
-gpgpu_dram_sched_queue_size                   32 # 0 = unlimited (default); # entries per chip
-gpgpu_dram_buswidth                    4 # default = 4 bytes (8 bytes per cycle at DDR)
-gpgpu_dram_burst_length                    4 # Burst length of each DRAM request (default = 4 DDR cycle)
-gpgpu_dram_timing_opt 8:2:8:12:25:10:35:10:7:6 # DRAM timing parameters = {nbk:tCCD:tRRD:tRCD:tRAS:tRP:tRC:CL:WL:tWTR}
-gpgpu_mem_address_mask                    1 # 0 = old addressing mask, 1 = new addressing mask, 2 = new add. mask + flipped bank sel and chip sel bits
-gpgpu_flush_cache                      0 # Flush cache at the end of each kernel call
-gpgpu_l2_readoverwrite                    0 # Prioritize read requests over write requests for L2
-gpgpu_pre_mem_stages                    1 # default = 0 pre-memory pipeline stages
-gpgpu_no_divg_load                     0 # Don't allow divergence on load
-gpgpu_dwf_hw                        32:2 # dynamic warp formation hw config, i.e., {<#LUT_entries>:<associativity>|none}
-gpgpu_thread_swizzling                    0 # Thread Swizzling (1=on, 0=off)
-gpgpu_strict_simd_wrbk                    0 # Applying Strick SIMD WriteBack Stage (1=on, 0=off)
-gpgpu_shmem_size                   16384 # Size of shared memory per shader core (default 16kB)
-gpgpu_shmem_bkconflict                    1 # Turn on bank conflict check for shared memory
-gpgpu_shmem_pipe_speedup                    1 # Number of groups each warp is divided for shared memory bank conflict check
-gpgpu_L2_queue         0:0:0:0:0:0:10:10 # L2 data cache queue length and latency config
-gpgpu_cache_wt_through                    0 # L1 cache become write through (1=on, 0=off)
-gpgpu_deadlock_detect                    1 # Stop the simulation at deadlock (1=on (default), 0=off)
-gpgpu_cache_bkconflict                    1 # Turn on bank conflict check for L1 cache access
-gpgpu_n_cache_bank                     1 # Number of banks in L1 cache, also for memory coalescing stall
-gpgpu_warpdistro_shader                   -1 # Specify which shader core to collect the warp size distribution from
-gpgpu_pdom_sched_type                    8 # 0 = first ready warp found, 1 = random, 8 = loose round robin
-gpgpu_spread_blocks_across_cores                    1 # Spread block-issuing across all cores instead of filling up core by core
-gpgpu_cuda_sim                         1 # use PTX instruction set
-gpgpu_ptx_instruction_classification                    0 # if enabled will classify ptx instruction types per kernel (Max 255 kernels now)
-gpgpu_ptx_sim_mode                     0 # Select between Performance (default) or Functional simulation (1)
-gpgpu_clock_domains 325.0:650.0:650.0:800.0 # Clock Domain Frequencies in MhZ {<Core Clock>:<ICNT Clock>:<L2 Clock>:<DRAM Clock>}
-gpgpu_shmem_port_per_bank                    2 # Number of access processed by a shared memory bank per cycle (default = 2)
-gpgpu_cache_port_per_bank                    2 # Number of access processed by a cache bank per cycle (default = 2)
-gpgpu_const_port_per_bank                    2 # Number of access processed by a constant cache bank per cycle (default = 2)
-gpgpu_cflog_interval                    0 # Interval between each snapshot in control flow logger
-gpgpu_partial_write_mask                    1 # use partial write mask to filter memory requests <1>No extra reads(use this!)<2>extra reads generated for partial chunks
-gpu_concentration                      3 # Number of shader cores per interconnection port (default = 1)
-gpgpu_local_mem_map                    1 # Mapping from local memory space address to simulated GPU physical address space (default = 1)
-pipetrace_out              pipetrace.txt # specifies file to output pipetrace to
-pipetrace                              0 # Turns pipetrace on/off
-gpgpu_mem_addr_mapping dramid@8;00000000.00000000.00000000.00000000.0000RRRR.RRRRRRRR.RRBBBCCC.CCCSSSSS # mapping memory address to dram model {dramid@<start bit>;<memory address map>}
-visualizer_enabled                     1 # Turn on visualizer output (1=On, 0=Off)
-visualizer_outputfile                 NULL # Specifies the output log file for visualizer
-visualizer_zlevel                      6 # Compression level of the visualizer output log (0=no comp, 9=highest)
-enable_ptx_file_line_stats                    1 # Turn on PTX source line statistic profiling. (1 = On)
-ptx_line_stats_filename gpgpu_inst_stats.txt # Output file for PTX source line statistics.
32 30 1024 983040
30720
addr_dec_mask[CHIP]  = 0000000000000700 	high:11 low:8
addr_dec_mask[BK]    = 000000000001c000 	high:17 low:14
addr_dec_mask[ROW]   = 000000007ffe0000 	high:31 low:17
addr_dec_mask[COL]   = 00000000000038ff 	high:14 low:0
addr_dec_mask[BURST] = 000000000000001f 	high:5 low:0
*** Initializing Memory Statistics ***
nodemap
0 
1 2 3 4 
5 6 7 8 
9 10 11 12 
13 14 15 16 
17 GPU performance model initialization complete.
GPGPU-Sim PTX: USING EMBEDDED .ptx files...
GPGPU-Sim PTX: parsing function _Z18dpRadix016A_kernelILin1EEvP7double2S1_jjjjd
GPGPU-Sim PTX: instruction assembly for function '_Z18dpRadix016A_kernelILin1EEvP7double2S1_jjjjd'...   done.
GPGPU-Sim PTX: Finding postdominators for '_Z18dpRadix016A_kernelILin1EEvP7double2S1_jjjjd'...
GPGPU-Sim PTX: Finding immediate postdominators for '_Z18dpRadix016A_kernelILin1EEvP7double2S1_jjjjd'...
GPGPU-Sim PTX: parsing function _Z18dpRadix016A_kernelILi1EEvP7double2S1_jjjjd
GPGPU-Sim PTX: instruction assembly for function '_Z18dpRadix016A_kernelILi1EEvP7double2S1_jjjjd'...   done.
GPGPU-Sim PTX: Finding postdominators for '_Z18dpRadix016A_kernelILi1EEvP7double2S1_jjjjd'...
GPGPU-Sim PTX: Finding immediate postdominators for '_Z18dpRadix016A_kernelILi1EEvP7double2S1_jjjjd'...
GPGPU-Sim PTX: parsing function _Z19dpRadix016A_kernel2ILin1EEvP7double2S1_jj
GPGPU-Sim PTX: allocating shared region for "__cuda_s_transpose104" from 0x100 to 0x2300 (shared memory space)
GPGPU-Sim PTX: instruction assembly for function '_Z19dpRadix016A_kernel2ILin1EEvP7double2S1_jj'...   done.
GPGPU-Sim PTX: Finding postdominators for '_Z19dpRadix016A_kernel2ILin1EEvP7double2S1_jj'...
GPGPU-Sim PTX: Finding immediate postdominators for '_Z19dpRadix016A_kernel2ILin1EEvP7double2S1_jj'...
GPGPU-Sim PTX: parsing function _Z19dpRadix016A_kernel2ILi1EEvP7double2S1_jj
GPGPU-Sim PTX: allocating shared region for "__cuda_s_transpose8832" from 0x100 to 0x2300 (shared memory space)
GPGPU-Sim PTX: instruction assembly for function '_Z19dpRadix016A_kernel2ILi1EEvP7double2S1_jj'...   done.
GPGPU-Sim PTX: Finding postdominators for '_Z19dpRadix016A_kernel2ILi1EEvP7double2S1_jj'...
GPGPU-Sim PTX: Finding immediate postdominators for '_Z19dpRadix016A_kernel2ILi1EEvP7double2S1_jj'...
GPGPU-Sim PTX: finished parsing EMBEDDED .ptx file _1.ptx
GPGPU-Sim PTX: extracting embedded .ptx to temporary file "_ptx_NeAeDJ"
GPGPU-Sim PTX: generating ptxinfo using "ptxas -v _ptx2_OiLzCg --output-file /dev/null 2> _ptx_NeAeDJinfo"
GPGPU-Sim PTX: Kernel _Z19dpRadix016A_kernel2ILi1EEvP7double2S1_jj
GPGPU-Sim PTX: Kernel _Z19dpRadix016A_kernel2ILin1EEvP7double2S1_jj
GPGPU-Sim PTX: Kernel _Z18dpRadix016A_kernelILi1EEvP7double2S1_jjjjd
GPGPU-Sim PTX: Kernel _Z18dpRadix016A_kernelILin1EEvP7double2S1_jjjjd
GPGPU-Sim PTX: removing ptxinfo using "rm -f _ptx_NeAeDJ _ptx2_OiLzCg _ptx_NeAeDJinfo"
GPGPU-Sim PTX: loading global with explicit initializers...  done.
GPGPU-Sim PTX: loading constants with explicit initializers...  done.
GPGPU-Sim PTX: parsing function _Z18dpRadix008A_kernelILin1EEvP7double2S1_jjjjd
GPGPU-Sim PTX: instruction assembly for function '_Z18dpRadix008A_kernelILin1EEvP7double2S1_jjjjd'...   done.
GPGPU-Sim PTX: Finding postdominators for '_Z18dpRadix008A_kernelILin1EEvP7double2S1_jjjjd'...
GPGPU-Sim PTX: Finding immediate postdominators for '_Z18dpRadix008A_kernelILin1EEvP7double2S1_jjjjd'...
GPGPU-Sim PTX: parsing function _Z18dpRadix008A_kernelILi1EEvP7double2S1_jjjjd
GPGPU-Sim PTX: instruction assembly for function '_Z18dpRadix008A_kernelILi1EEvP7double2S1_jjjjd'...   done.
GPGPU-Sim PTX: Finding postdominators for '_Z18dpRadix008A_kernelILi1EEvP7double2S1_jjjjd'...
GPGPU-Sim PTX: Finding immediate postdominators for '_Z18dpRadix008A_kernelILi1EEvP7double2S1_jjjjd'...
GPGPU-Sim PTX: parsing function _Z19dpRadix008A_kernel2ILin1EEvP7double2S1_jj
GPGPU-Sim PTX: allocating shared region for "__cuda_s_transpose104" from 0x100 to 0x1300 (shared memory space)
GPGPU-Sim PTX: instruction assembly for function '_Z19dpRadix008A_kernel2ILin1EEvP7double2S1_jj'...   done.
GPGPU-Sim PTX: Finding postdominators for '_Z19dpRadix008A_kernel2ILin1EEvP7double2S1_jj'...
GPGPU-Sim PTX: Finding immediate postdominators for '_Z19dpRadix008A_kernel2ILin1EEvP7double2S1_jj'...
GPGPU-Sim PTX: parsing function _Z19dpRadix008A_kernel2ILi1EEvP7double2S1_jj
GPGPU-Sim PTX: allocating shared region for "__cuda_s_transpose4736" from 0x100 to 0x1300 (shared memory space)
GPGPU-Sim PTX: instruction assembly for function '_Z19dpRadix008A_kernel2ILi1EEvP7double2S1_jj'...   done.
GPGPU-Sim PTX: Finding postdominators for '_Z19dpRadix008A_kernel2ILi1EEvP7double2S1_jj'...
GPGPU-Sim PTX: Finding immediate postdominators for '_Z19dpRadix008A_kernel2ILi1EEvP7double2S1_jj'...
GPGPU-Sim PTX: finished parsing EMBEDDED .ptx file _2.ptx
GPGPU-Sim PTX: extracting embedded .ptx to temporary file "_ptx_h7ILJO"
GPGPU-Sim PTX: generating ptxinfo using "ptxas -v _ptx2_8ovbSm --output-file /dev/null 2> _ptx_h7ILJOinfo"
GPGPU-Sim PTX: Kernel _Z19dpRadix008A_kernel2ILi1EEvP7double2S1_jj
GPGPU-Sim PTX: Kernel _Z19dpRadix008A_kernel2ILin1EEvP7double2S1_jj
GPGPU-Sim PTX: Kernel _Z18dpRadix008A_kernelILi1EEvP7double2S1_jjjjd
GPGPU-Sim PTX: Kernel _Z18dpRadix008A_kernelILin1EEvP7double2S1_jjjjd
GPGPU-Sim PTX: removing ptxinfo using "rm -f _ptx_h7ILJO _ptx2_8ovbSm _ptx_h7ILJOinfo"
GPGPU-Sim PTX: loading global with explicit initializers...  done.
GPGPU-Sim PTX: loading constants with explicit initializers...  done.
GPGPU-Sim PTX: parsing function _Z18dpRadix004A_kernelILin1EEvP7double2S1_jjjjd
GPGPU-Sim PTX: instruction assembly for function '_Z18dpRadix004A_kernelILin1EEvP7double2S1_jjjjd'...   done.
GPGPU-Sim PTX: Finding postdominators for '_Z18dpRadix004A_kernelILin1EEvP7double2S1_jjjjd'...
GPGPU-Sim PTX: Finding immediate postdominators for '_Z18dpRadix004A_kernelILin1EEvP7double2S1_jjjjd'...
GPGPU-Sim PTX: parsing function _Z18dpRadix004A_kernelILi1EEvP7double2S1_jjjjd
GPGPU-Sim PTX: instruction assembly for function '_Z18dpRadix004A_kernelILi1EEvP7double2S1_jjjjd'...   done.
GPGPU-Sim PTX: Finding postdominators for '_Z18dpRadix004A_kernelILi1EEvP7double2S1_jjjjd'...
GPGPU-Sim PTX: Finding immediate postdominators for '_Z18dpRadix004A_kernelILi1EEvP7double2S1_jjjjd'...
GPGPU-Sim PTX: parsing function _Z19dpRadix004A_kernel2ILin1EEvP7double2S1_jj
GPGPU-Sim PTX: allocating shared region for "__cuda_s_transpose104" from 0x100 to 0x1500 (shared memory space)
GPGPU-Sim PTX: instruction assembly for function '_Z19dpRadix004A_kernel2ILin1EEvP7double2S1_jj'...   done.
GPGPU-Sim PTX: Finding postdominators for '_Z19dpRadix004A_kernel2ILin1EEvP7double2S1_jj'...
GPGPU-Sim PTX: Finding immediate postdominators for '_Z19dpRadix004A_kernel2ILin1EEvP7double2S1_jj'...
GPGPU-Sim PTX: parsing function _Z19dpRadix004A_kernel2ILi1EEvP7double2S1_jj
GPGPU-Sim PTX: allocating shared region for "__cuda_s_transpose5248" from 0x100 to 0x1500 (shared memory space)
GPGPU-Sim PTX: instruction assembly for function '_Z19dpRadix004A_kernel2ILi1EEvP7double2S1_jj'...   done.
GPGPU-Sim PTX: Finding postdominators for '_Z19dpRadix004A_kernel2ILi1EEvP7double2S1_jj'...
GPGPU-Sim PTX: Finding immediate postdominators for '_Z19dpRadix004A_kernel2ILi1EEvP7double2S1_jj'...
GPGPU-Sim PTX: finished parsing EMBEDDED .ptx file _3.ptx
GPGPU-Sim PTX: extracting embedded .ptx to temporary file "_ptx_D7Y6wV"
GPGPU-Sim PTX: generating ptxinfo using "ptxas -v _ptx2_9dpYcu --output-file /dev/null 2> _ptx_D7Y6wVinfo"
GPGPU-Sim PTX: Kernel _Z19dpRadix004A_kernel2ILi1EEvP7double2S1_jj
GPGPU-Sim PTX: Kernel _Z19dpRadix004A_kernel2ILin1EEvP7double2S1_jj
GPGPU-Sim PTX: Kernel _Z18dpRadix004A_kernelILi1EEvP7double2S1_jjjjd
GPGPU-Sim PTX: Kernel _Z18dpRadix004A_kernelILin1EEvP7double2S1_jjjjd
GPGPU-Sim PTX: removing ptxinfo using "rm -f _ptx_D7Y6wV _ptx2_9dpYcu _ptx_D7Y6wVinfo"
GPGPU-Sim PTX: loading global with explicit initializers...  done.
GPGPU-Sim PTX: loading constants with explicit initializers...  done.
GPGPU-Sim PTX: parsing function _Z18dpRadix002A_kernelP7double2S0_jjjjd
GPGPU-Sim PTX: instruction assembly for function '_Z18dpRadix002A_kernelP7double2S0_jjjjd'...   done.
GPGPU-Sim PTX: Finding postdominators for '_Z18dpRadix002A_kernelP7double2S0_jjjjd'...
GPGPU-Sim PTX: Finding immediate postdominators for '_Z18dpRadix002A_kernelP7double2S0_jjjjd'...
GPGPU-Sim PTX: finished parsing EMBEDDED .ptx file _4.ptx
GPGPU-Sim PTX: extracting embedded .ptx to temporary file "_ptx_Ir6kg3"
GPGPU-Sim PTX: generating ptxinfo using "ptxas -v _ptx2_j8XrkC --output-file /dev/null 2> _ptx_Ir6kg3info"
GPGPU-Sim PTX: Kernel _Z18dpRadix002A_kernelP7double2S0_jjjjd
GPGPU-Sim PTX: removing ptxinfo using "rm -f _ptx_Ir6kg3 _ptx2_j8XrkC _ptx_Ir6kg3info"
GPGPU-Sim PTX: loading global with explicit initializers...  done.
GPGPU-Sim PTX: loading constants with explicit initializers...  done.
GPGPU-Sim PTX: parsing function _Z22fftSmem128Kernel_8_4_4ILin1EEvP6float2S1_jf
GPGPU-Sim PTX: allocating shared region for "__cuda_s_transpose24" from 0x100 to 0xb00 (shared memory space)
GPGPU-Sim PTX: instruction assembly for function '_Z22fftSmem128Kernel_8_4_4ILin1EEvP6float2S1_jf'...   done.
GPGPU-Sim PTX: Finding postdominators for '_Z22fftSmem128Kernel_8_4_4ILin1EEvP6float2S1_jf'...
GPGPU-Sim PTX: Finding immediate postdominators for '_Z22fftSmem128Kernel_8_4_4ILin1EEvP6float2S1_jf'...
GPGPU-Sim PTX: parsing function _Z22fftSmem256Kernel_16_16ILin1EEvP6float2S1_jf
GPGPU-Sim PTX: allocating shared region for "__cuda_s_transpose2608" from 0x100 to 0x1200 (shared memory space)
GPGPU-Sim PTX: instruction assembly for function '_Z22fftSmem256Kernel_16_16ILin1EEvP6float2S1_jf'...   done.
GPGPU-Sim PTX: Finding postdominators for '_Z22fftSmem256Kernel_16_16ILin1EEvP6float2S1_jf'...
GPGPU-Sim PTX: Finding immediate postdominators for '_Z22fftSmem256Kernel_16_16ILin1EEvP6float2S1_jf'...
GPGPU-Sim PTX: parsing function _Z22fftSmem512Kernel_8_8_8ILin1EEvP6float2S1_jf
GPGPU-Sim PTX: allocating shared region for "__cuda_s_transpose6984" from 0x100 to 0x9e0 (shared memory space)
GPGPU-Sim PTX: instruction assembly for function '_Z22fftSmem512Kernel_8_8_8ILin1EEvP6float2S1_jf'...   done.
GPGPU-Sim PTX: Finding postdominators for '_Z22fftSmem512Kernel_8_8_8ILin1EEvP6float2S1_jf'...
GPGPU-Sim PTX: Finding immediate postdominators for '_Z22fftSmem512Kernel_8_8_8ILin1EEvP6float2S1_jf'...
GPGPU-Sim PTX: parsing function _Z24fftSmem1024Kernel_8_8_16ILin1EEvP6float2S1_jf
GPGPU-Sim PTX: allocating shared region for "__cuda_s_transpose9280" from 0x100 to 0x1200 (shared memory space)
GPGPU-Sim PTX: instruction assembly for function '_Z24fftSmem1024Kernel_8_8_16ILin1EEvP6float2S1_jf'...   done.
GPGPU-Sim PTX: Finding postdominators for '_Z24fftSmem1024Kernel_8_8_16ILin1EEvP6float2S1_jf'...
GPGPU-Sim PTX: Finding immediate postdominators for '_Z24fftSmem1024Kernel_8_8_16ILin1EEvP6float2S1_jf'...
GPGPU-Sim PTX: parsing function _Z25fftSmem2048Kernel_8_4_8_8ILin1EEvP6float2S1_jf
GPGPU-Sim PTX: allocating shared region for "__cuda_s_transpose13656" from 0x100 to 0x2500 (shared memory space)
GPGPU-Sim PTX: instruction assembly for function '_Z25fftSmem2048Kernel_8_4_8_8ILin1EEvP6float2S1_jf'...   done.
GPGPU-Sim PTX: Finding postdominators for '_Z25fftSmem2048Kernel_8_4_8_8ILin1EEvP6float2S1_jf'...
GPGPU-Sim PTX: Finding immediate postdominators for '_Z25fftSmem2048Kernel_8_4_8_8ILin1EEvP6float2S1_jf'...
GPGPU-Sim PTX: parsing function _Z22fftSmem128Kernel_8_4_4ILi1EEvP6float2S1_jf
GPGPU-Sim PTX: allocating shared region for "__cuda_s_transpose22896" from 0x100 to 0xb00 (shared memory space)
GPGPU-Sim PTX: instruction assembly for function '_Z22fftSmem128Kernel_8_4_4ILi1EEvP6float2S1_jf'...   done.
GPGPU-Sim PTX: Finding postdominators for '_Z22fftSmem128Kernel_8_4_4ILi1EEvP6float2S1_jf'...
GPGPU-Sim PTX: Finding immediate postdominators for '_Z22fftSmem128Kernel_8_4_4ILi1EEvP6float2S1_jf'...
GPGPU-Sim PTX: parsing function _Z22fftSmem256Kernel_16_16ILi1EEvP6float2S1_jf
GPGPU-Sim PTX: allocating shared region for "__cuda_s_transpose25480" from 0x100 to 0x1200 (shared memory space)
GPGPU-Sim PTX: instruction assembly for function '_Z22fftSmem256Kernel_16_16ILi1EEvP6float2S1_jf'...   done.
GPGPU-Sim PTX: Finding postdominators for '_Z22fftSmem256Kernel_16_16ILi1EEvP6float2S1_jf'...
GPGPU-Sim PTX: Finding immediate postdominators for '_Z22fftSmem256Kernel_16_16ILi1EEvP6float2S1_jf'...
GPGPU-Sim PTX: parsing function _Z22fftSmem512Kernel_8_8_8ILi1EEvP6float2S1_jf
GPGPU-Sim PTX: allocating shared region for "__cuda_s_transpose29856" from 0x100 to 0x9e0 (shared memory space)
GPGPU-Sim PTX: instruction assembly for function '_Z22fftSmem512Kernel_8_8_8ILi1EEvP6float2S1_jf'...   done.
GPGPU-Sim PTX: Finding postdominators for '_Z22fftSmem512Kernel_8_8_8ILi1EEvP6float2S1_jf'...
GPGPU-Sim PTX: Finding immediate postdominators for '_Z22fftSmem512Kernel_8_8_8ILi1EEvP6float2S1_jf'...
GPGPU-Sim PTX: parsing function _Z24fftSmem1024Kernel_8_8_16ILi1EEvP6float2S1_jf
GPGPU-Sim PTX: allocating shared region for "__cuda_s_transpose32152" from 0x100 to 0x1200 (shared memory space)
GPGPU-Sim PTX: instruction assembly for function '_Z24fftSmem1024Kernel_8_8_16ILi1EEvP6float2S1_jf'...   done.
GPGPU-Sim PTX: Finding postdominators for '_Z24fftSmem1024Kernel_8_8_16ILi1EEvP6float2S1_jf'...
GPGPU-Sim PTX: Finding immediate postdominators for '_Z24fftSmem1024Kernel_8_8_16ILi1EEvP6float2S1_jf'...
GPGPU-Sim PTX: parsing function _Z25fftSmem2048Kernel_8_4_8_8ILi1EEvP6float2S1_jf
GPGPU-Sim PTX: allocating shared region for "__cuda_s_transpose36528" from 0x100 to 0x2500 (shared memory space)
GPGPU-Sim PTX: instruction assembly for function '_Z25fftSmem2048Kernel_8_4_8_8ILi1EEvP6float2S1_jf'...   done.
GPGPU-Sim PTX: Finding postdominators for '_Z25fftSmem2048Kernel_8_4_8_8ILi1EEvP6float2S1_jf'...
GPGPU-Sim PTX: Finding immediate postdominators for '_Z25fftSmem2048Kernel_8_4_8_8ILi1EEvP6float2S1_jf'...
GPGPU-Sim PTX: finished parsing EMBEDDED .ptx file _5.ptx
GPGPU-Sim PTX: extracting embedded .ptx to temporary file "_ptx_4QWjxc"
GPGPU-Sim PTX: generating ptxinfo using "ptxas -v _ptx2_eCxqSM --output-file /dev/null 2> _ptx_4QWjxcinfo"
GPGPU-Sim PTX: Kernel _Z25fftSmem2048Kernel_8_4_8_8ILi1EEvP6float2S1_jf
GPGPU-Sim PTX: Kernel _Z24fftSmem1024Kernel_8_8_16ILi1EEvP6float2S1_jf
GPGPU-Sim PTX: Kernel _Z22fftSmem512Kernel_8_8_8ILi1EEvP6float2S1_jf
GPGPU-Sim PTX: Kernel _Z22fftSmem256Kernel_16_16ILi1EEvP6float2S1_jf
GPGPU-Sim PTX: Kernel _Z22fftSmem128Kernel_8_4_4ILi1EEvP6float2S1_jf
GPGPU-Sim PTX: Kernel _Z25fftSmem2048Kernel_8_4_8_8ILin1EEvP6float2S1_jf
GPGPU-Sim PTX: Kernel _Z24fftSmem1024Kernel_8_8_16ILin1EEvP6float2S1_jf
GPGPU-Sim PTX: Kernel _Z22fftSmem512Kernel_8_8_8ILin1EEvP6float2S1_jf
GPGPU-Sim PTX: Kernel _Z22fftSmem256Kernel_16_16ILin1EEvP6float2S1_jf
GPGPU-Sim PTX: Kernel _Z22fftSmem128Kernel_8_4_4ILin1EEvP6float2S1_jf
GPGPU-Sim PTX: removing ptxinfo using "rm -f _ptx_4QWjxc _ptx2_eCxqSM _ptx_4QWjxcinfo"
GPGPU-Sim PTX: loading global with explicit initializers...  done.
GPGPU-Sim PTX: loading constants with explicit initializers...  done.
GPGPU-Sim PTX: encountered texture directive texComplex.
GPGPU-Sim PTX: encountered texture directive texComplex2.
GPGPU-Sim PTX: parsing function _Z18spRadix512C_kernelILin1EEvP6float2S1_jjjjf
GPGPU-Sim PTX: allocating shared region for "__cuda_s_transpose36" from 0x100 to 0x2500 (shared memory space)
GPGPU-Sim PTX: instruction assembly for function '_Z18spRadix512C_kernelILin1EEvP6float2S1_jjjjf'...   done.
GPGPU-Sim PTX: Finding postdominators for '_Z18spRadix512C_kernelILin1EEvP6float2S1_jjjjf'...
GPGPU-Sim PTX: Finding immediate postdominators for '_Z18spRadix512C_kernelILin1EEvP6float2S1_jjjjf'...
GPGPU-Sim PTX: parsing function _Z18spRadix512C_kernelILi1EEvP6float2S1_jjjjf
GPGPU-Sim PTX: allocating shared region for "__cuda_s_transpose9292" from 0x100 to 0x2500 (shared memory space)
GPGPU-Sim PTX: instruction assembly for function '_Z18spRadix512C_kernelILi1EEvP6float2S1_jjjjf'...   done.
GPGPU-Sim PTX: Finding postdominators for '_Z18spRadix512C_kernelILi1EEvP6float2S1_jjjjf'...
GPGPU-Sim PTX: Finding immediate postdominators for '_Z18spRadix512C_kernelILi1EEvP6float2S1_jjjjf'...
GPGPU-Sim PTX: finished parsing EMBEDDED .ptx file _6.ptx
GPGPU-Sim PTX: extracting embedded .ptx to temporary file "_ptx_ZbItJp"
GPGPU-Sim PTX: generating ptxinfo using "ptxas -v _ptx2_Op0gC2 --output-file /dev/null 2> _ptx_ZbItJpinfo"
GPGPU-Sim PTX: Kernel _Z18spRadix512C_kernelILi1EEvP6float2S1_jjjjf
GPGPU-Sim PTX: Kernel _Z18spRadix512C_kernelILin1EEvP6float2S1_jjjjf
GPGPU-Sim PTX: removing ptxinfo using "rm -f _ptx_ZbItJp _ptx2_Op0gC2 _ptx_ZbItJpinfo"
GPGPU-Sim PTX: loading global with explicit initializers...  done.
GPGPU-Sim PTX: loading constants with explicit initializers...  done.
GPGPU-Sim PTX: encountered texture directive texComplex.
GPGPU-Sim PTX: encountered texture directive texComplex2.
GPGPU-Sim PTX: allocating constant region for "c_Twiddle_16x16o256" from 0x100 to 0x900 (global memory space) 1
GPGPU-Sim PTX: parsing function _Z18spRadix256B_kernelILin1EEvP6float2S1_jjjjf
GPGPU-Sim PTX: allocating shared region for "__cuda_s_transpose36" from 0x100 to 0x1200 (shared memory space)
GPGPU-Sim PTX: instruction assembly for function '_Z18spRadix256B_kernelILin1EEvP6float2S1_jjjjf'...   done.
GPGPU-Sim PTX: Finding postdominators for '_Z18spRadix256B_kernelILin1EEvP6float2S1_jjjjf'...
GPGPU-Sim PTX: Finding immediate postdominators for '_Z18spRadix256B_kernelILin1EEvP6float2S1_jjjjf'...
GPGPU-Sim PTX: parsing function _Z18spRadix256B_kernelILi1EEvP6float2S1_jjjjf
GPGPU-Sim PTX: allocating shared region for "__cuda_s_transpose4428" from 0x100 to 0x1200 (shared memory space)
GPGPU-Sim PTX: instruction assembly for function '_Z18spRadix256B_kernelILi1EEvP6float2S1_jjjjf'...   done.
GPGPU-Sim PTX: Finding postdominators for '_Z18spRadix256B_kernelILi1EEvP6float2S1_jjjjf'...
GPGPU-Sim PTX: Finding immediate postdominators for '_Z18spRadix256B_kernelILi1EEvP6float2S1_jjjjf'...
GPGPU-Sim PTX: parsing function _Z19spRadix256B_kernel2ILin1EEvP6float2S1_jj
GPGPU-Sim PTX: allocating shared region for "__cuda_s_transpose8808" from 0x100 to 0x1200 (shared memory space)
GPGPU-Sim PTX: instruction assembly for function '_Z19spRadix256B_kernel2ILin1EEvP6float2S1_jj'...   done.
GPGPU-Sim PTX: Finding postdominators for '_Z19spRadix256B_kernel2ILin1EEvP6float2S1_jj'...
GPGPU-Sim PTX: Finding immediate postdominators for '_Z19spRadix256B_kernel2ILin1EEvP6float2S1_jj'...
GPGPU-Sim PTX: parsing function _Z19spRadix256B_kernel2ILi1EEvP6float2S1_jj
GPGPU-Sim PTX: allocating shared region for "__cuda_s_transpose13184" from 0x100 to 0x1200 (shared memory space)
GPGPU-Sim PTX: instruction assembly for function '_Z19spRadix256B_kernel2ILi1EEvP6float2S1_jj'...   done.
GPGPU-Sim PTX: Finding postdominators for '_Z19spRadix256B_kernel2ILi1EEvP6float2S1_jj'...
GPGPU-Sim PTX: Finding immediate postdominators for '_Z19spRadix256B_kernel2ILi1EEvP6float2S1_jj'...
GPGPU-Sim PTX: finished parsing EMBEDDED .ptx file _7.ptx
GPGPU-Sim PTX: extracting embedded .ptx to temporary file "_ptx_iZZ5yG"
GPGPU-Sim PTX: generating ptxinfo using "ptxas -v _ptx2_L55mAk --output-file /dev/null 2> _ptx_iZZ5yGinfo"
GPGPU-Sim PTX: Kernel _Z19spRadix256B_kernel2ILi1EEvP6float2S1_jj
GPGPU-Sim PTX: Kernel _Z19spRadix256B_kernel2ILin1EEvP6float2S1_jj
GPGPU-Sim PTX: Kernel _Z18spRadix256B_kernelILi1EEvP6float2S1_jjjjf
GPGPU-Sim PTX: Kernel _Z18spRadix256B_kernelILin1EEvP6float2S1_jjjjf
GPGPU-Sim PTX: removing ptxinfo using "rm -f _ptx_iZZ5yG _ptx2_L55mAk _ptx_iZZ5yGinfo"
GPGPU-Sim PTX: loading global with explicit initializers...  done.
GPGPU-Sim PTX: loading constants with explicit initializers...  done.
GPGPU-Sim PTX: encountered texture directive texComplex.
GPGPU-Sim PTX: encountered texture directive texComplex2.
GPGPU-Sim PTX: allocating constant region for "c_Twiddle_16x8o128" from 0x100 to 0x500 (global memory space) 2
GPGPU-Sim PTX: parsing function _Z18spRadix128B_kernelILin1EEvP6float2S1_jjjjf
GPGPU-Sim PTX: allocating shared region for "__cuda_s_transpose36" from 0x100 to 0x1200 (shared memory space)
GPGPU-Sim PTX: instruction assembly for function '_Z18spRadix128B_kernelILin1EEvP6float2S1_jjjjf'...   done.
GPGPU-Sim PTX: Finding postdominators for '_Z18spRadix128B_kernelILin1EEvP6float2S1_jjjjf'...
GPGPU-Sim PTX: Finding immediate postdominators for '_Z18spRadix128B_kernelILin1EEvP6float2S1_jjjjf'...
GPGPU-Sim PTX: parsing function _Z18spRadix128B_kernelILi1EEvP6float2S1_jjjjf
GPGPU-Sim PTX: allocating shared region for "__cuda_s_transpose4428" from 0x100 to 0x1200 (shared memory space)
GPGPU-Sim PTX: instruction assembly for function '_Z18spRadix128B_kernelILi1EEvP6float2S1_jjjjf'...   done.
GPGPU-Sim PTX: Finding postdominators for '_Z18spRadix128B_kernelILi1EEvP6float2S1_jjjjf'...
GPGPU-Sim PTX: Finding immediate postdominators for '_Z18spRadix128B_kernelILi1EEvP6float2S1_jjjjf'...
GPGPU-Sim PTX: parsing function _Z19spRadix128B_kernel2ILin1EEvP6float2S1_jj
GPGPU-Sim PTX: allocating shared region for "__cuda_s_transpose8808" from 0x100 to 0x1200 (shared memory space)
GPGPU-Sim PTX: instruction assembly for function '_Z19spRadix128B_kernel2ILin1EEvP6float2S1_jj'...   done.
GPGPU-Sim PTX: Finding postdominators for '_Z19spRadix128B_kernel2ILin1EEvP6float2S1_jj'...
GPGPU-Sim PTX: Finding immediate postdominators for '_Z19spRadix128B_kernel2ILin1EEvP6float2S1_jj'...
GPGPU-Sim PTX: parsing function _Z19spRadix128B_kernel2ILi1EEvP6float2S1_jj
GPGPU-Sim PTX: allocating shared region for "__cuda_s_transpose13184" from 0x100 to 0x1200 (shared memory space)
GPGPU-Sim PTX: instruction assembly for function '_Z19spRadix128B_kernel2ILi1EEvP6float2S1_jj'...   done.
GPGPU-Sim PTX: Finding postdominators for '_Z19spRadix128B_kernel2ILi1EEvP6float2S1_jj'...
GPGPU-Sim PTX: Finding immediate postdominators for '_Z19spRadix128B_kernel2ILi1EEvP6float2S1_jj'...
GPGPU-Sim PTX: finished parsing EMBEDDED .ptx file _8.ptx
GPGPU-Sim PTX: extracting embedded .ptx to temporary file "_ptx_fzz7B0"
GPGPU-Sim PTX: generating ptxinfo using "ptxas -v _ptx2_EdUoHG --output-file /dev/null 2> _ptx_fzz7B0info"
GPGPU-Sim PTX: Kernel _Z19spRadix128B_kernel2ILi1EEvP6float2S1_jj
GPGPU-Sim PTX: Kernel _Z19spRadix128B_kernel2ILin1EEvP6float2S1_jj
GPGPU-Sim PTX: Kernel _Z18spRadix128B_kernelILi1EEvP6float2S1_jjjjf
GPGPU-Sim PTX: Kernel _Z18spRadix128B_kernelILin1EEvP6float2S1_jjjjf
GPGPU-Sim PTX: removing ptxinfo using "rm -f _ptx_fzz7B0 _ptx2_EdUoHG _ptx_fzz7B0info"
GPGPU-Sim PTX: loading global with explicit initializers...  done.
GPGPU-Sim PTX: loading constants with explicit initializers...  done.
GPGPU-Sim PTX: allocating constant region for "c_Twiddle_8x8o64" from 0x100 to 0x300 (global memory space) 3
GPGPU-Sim PTX: parsing function _Z18spRadix064B_kernelILin1EEvP6float2S1_jjjjf
GPGPU-Sim PTX: allocating shared region for "__cuda_s_transpose36" from 0x100 to 0x1100 (shared memory space)
GPGPU-Sim PTX: instruction assembly for function '_Z18spRadix064B_kernelILin1EEvP6float2S1_jjjjf'...   done.
GPGPU-Sim PTX: Finding postdominators for '_Z18spRadix064B_kernelILin1EEvP6float2S1_jjjjf'...
GPGPU-Sim PTX: Finding immediate postdominators for '_Z18spRadix064B_kernelILin1EEvP6float2S1_jjjjf'...
GPGPU-Sim PTX: parsing function _Z18spRadix064B_kernelILi1EEvP6float2S1_jjjjf
GPGPU-Sim PTX: allocating shared region for "__cuda_s_transpose4172" from 0x100 to 0x1100 (shared memory space)
GPGPU-Sim PTX: instruction assembly for function '_Z18spRadix064B_kernelILi1EEvP6float2S1_jjjjf'...   done.
GPGPU-Sim PTX: Finding postdominators for '_Z18spRadix064B_kernelILi1EEvP6float2S1_jjjjf'...
GPGPU-Sim PTX: Finding immediate postdominators for '_Z18spRadix064B_kernelILi1EEvP6float2S1_jjjjf'...
GPGPU-Sim PTX: parsing function _Z19spRadix064B_kernel2ILin1EEvP6float2S1_jj
GPGPU-Sim PTX: allocating shared region for "__cuda_s_transpose8296" from 0x100 to 0x1300 (shared memory space)
GPGPU-Sim PTX: instruction assembly for function '_Z19spRadix064B_kernel2ILin1EEvP6float2S1_jj'...   done.
GPGPU-Sim PTX: Finding postdominators for '_Z19spRadix064B_kernel2ILin1EEvP6float2S1_jj'...
GPGPU-Sim PTX: Finding immediate postdominators for '_Z19spRadix064B_kernel2ILin1EEvP6float2S1_jj'...
GPGPU-Sim PTX: parsing function _Z19spRadix064B_kernel2ILi1EEvP6float2S1_jj
GPGPU-Sim PTX: allocating shared region for "__cuda_s_transpose12928" from 0x100 to 0x1300 (shared memory space)
GPGPU-Sim PTX: instruction assembly for function '_Z19spRadix064B_kernel2ILi1EEvP6float2S1_jj'...   done.
GPGPU-Sim PTX: Finding postdominators for '_Z19spRadix064B_kernel2ILi1EEvP6float2S1_jj'...
GPGPU-Sim PTX: Finding immediate postdominators for '_Z19spRadix064B_kernel2ILi1EEvP6float2S1_jj'...
GPGPU-Sim PTX: finished parsing EMBEDDED .ptx file _9.ptx
GPGPU-Sim PTX: extracting embedded .ptx to temporary file "_ptx_j07Hlo"
GPGPU-Sim PTX: generating ptxinfo using "ptxas -v _ptx2_1sB115 --output-file /dev/null 2> _ptx_j07Hloinfo"
GPGPU-Sim PTX: Kernel _Z19spRadix064B_kernel2ILi1EEvP6float2S1_jj
GPGPU-Sim PTX: Kernel _Z19spRadix064B_kernel2ILin1EEvP6float2S1_jj
GPGPU-Sim PTX: Kernel _Z18spRadix064B_kernelILi1EEvP6float2S1_jjjjf
GPGPU-Sim PTX: Kernel _Z18spRadix064B_kernelILin1EEvP6float2S1_jjjjf
GPGPU-Sim PTX: removing ptxinfo using "rm -f _ptx_j07Hlo _ptx2_1sB115 _ptx_j07Hloinfo"
GPGPU-Sim PTX: loading global with explicit initializers...  done.
GPGPU-Sim PTX: loading constants with explicit initializers...  done.
GPGPU-Sim PTX: allocating constant region for "c_Twiddle_8x4o32" from 0x100 to 0x200 (global memory space) 4
GPGPU-Sim PTX: parsing function _Z18spRadix032B_kernelILin1EEvP6float2S1_jjjjf
GPGPU-Sim PTX: allocating shared region for "__cuda_s_transpose36" from 0x100 to 0x900 (shared memory space)
GPGPU-Sim PTX: instruction assembly for function '_Z18spRadix032B_kernelILin1EEvP6float2S1_jjjjf'...   done.
GPGPU-Sim PTX: Finding postdominators for '_Z18spRadix032B_kernelILin1EEvP6float2S1_jjjjf'...
GPGPU-Sim PTX: Finding immediate postdominators for '_Z18spRadix032B_kernelILin1EEvP6float2S1_jjjjf'...
GPGPU-Sim PTX: parsing function _Z18spRadix032B_kernelILi1EEvP6float2S1_jjjjf
GPGPU-Sim PTX: allocating shared region for "__cuda_s_transpose2124" from 0x100 to 0x900 (shared memory space)
GPGPU-Sim PTX: instruction assembly for function '_Z18spRadix032B_kernelILi1EEvP6float2S1_jjjjf'...   done.
GPGPU-Sim PTX: Finding postdominators for '_Z18spRadix032B_kernelILi1EEvP6float2S1_jjjjf'...
GPGPU-Sim PTX: Finding immediate postdominators for '_Z18spRadix032B_kernelILi1EEvP6float2S1_jjjjf'...
GPGPU-Sim PTX: parsing function _Z19spRadix032B_kernel2ILin1EEvP6float2S1_jj
GPGPU-Sim PTX: allocating shared region for "__cuda_s_transpose4200" from 0x100 to 0xa00 (shared memory space)
GPGPU-Sim PTX: instruction assembly for function '_Z19spRadix032B_kernel2ILin1EEvP6float2S1_jj'...   done.
GPGPU-Sim PTX: Finding postdominators for '_Z19spRadix032B_kernel2ILin1EEvP6float2S1_jj'...
GPGPU-Sim PTX: Finding immediate postdominators for '_Z19spRadix032B_kernel2ILin1EEvP6float2S1_jj'...
GPGPU-Sim PTX: parsing function _Z19spRadix032B_kernel2ILi1EEvP6float2S1_jj
GPGPU-Sim PTX: allocating shared region for "__cuda_s_transpose6528" from 0x100 to 0xa00 (shared memory space)
GPGPU-Sim PTX: instruction assembly for function '_Z19spRadix032B_kernel2ILi1EEvP6float2S1_jj'...   done.
GPGPU-Sim PTX: Finding postdominators for '_Z19spRadix032B_kernel2ILi1EEvP6float2S1_jj'...
GPGPU-Sim PTX: Finding immediate postdominators for '_Z19spRadix032B_kernel2ILi1EEvP6float2S1_jj'...
GPGPU-Sim PTX: finished parsing EMBEDDED .ptx file _10.ptx
GPGPU-Sim PTX: extracting embedded .ptx to temporary file "_ptx_0O0UyO"
GPGPU-Sim PTX: generating ptxinfo using "ptxas -v _ptx2_Zhlv7w --output-file /dev/null 2> _ptx_0O0UyOinfo"
GPGPU-Sim PTX: Kernel _Z19spRadix032B_kernel2ILi1EEvP6float2S1_jj
GPGPU-Sim PTX: Kernel _Z19spRadix032B_kernel2ILin1EEvP6float2S1_jj
GPGPU-Sim PTX: Kernel _Z18spRadix032B_kernelILi1EEvP6float2S1_jjjjf
GPGPU-Sim PTX: Kernel _Z18spRadix032B_kernelILin1EEvP6float2S1_jjjjf
GPGPU-Sim PTX: removing ptxinfo using "rm -f _ptx_0O0UyO _ptx2_Zhlv7w _ptx_0O0UyOinfo"
GPGPU-Sim PTX: loading global with explicit initializers...  done.
GPGPU-Sim PTX: loading constants with explicit initializers...  done.
GPGPU-Sim PTX: encountered texture directive texComplex.
GPGPU-Sim PTX: encountered texture directive texComplex2.
GPGPU-Sim PTX: parsing function _Z18spRadix032A_kernelILin1EEvP6float2S1_jjjjf
GPGPU-Sim PTX: instruction assembly for function '_Z18spRadix032A_kernelILin1EEvP6float2S1_jjjjf'...   done.
GPGPU-Sim PTX: Finding postdominators for '_Z18spRadix032A_kernelILin1EEvP6float2S1_jjjjf'...
GPGPU-Sim PTX: Finding immediate postdominators for '_Z18spRadix032A_kernelILin1EEvP6float2S1_jjjjf'...
GPGPU-Sim PTX: parsing function _Z18spRadix032A_kernelILi1EEvP6float2S1_jjjjf
GPGPU-Sim PTX: instruction assembly for function '_Z18spRadix032A_kernelILi1EEvP6float2S1_jjjjf'...   done.
GPGPU-Sim PTX: Finding postdominators for '_Z18spRadix032A_kernelILi1EEvP6float2S1_jjjjf'...
GPGPU-Sim PTX: Finding immediate postdominators for '_Z18spRadix032A_kernelILi1EEvP6float2S1_jjjjf'...
GPGPU-Sim PTX: finished parsing EMBEDDED .ptx file _11.ptx
GPGPU-Sim PTX: extracting embedded .ptx to temporary file "_ptx_kCustg"
GPGPU-Sim PTX: generating ptxinfo using "ptxas -v _ptx2_VCvmRZ --output-file /dev/null 2> _ptx_kCustginfo"
GPGPU-Sim PTX: Kernel _Z18spRadix032A_kernelILi1EEvP6float2S1_jjjjf
GPGPU-Sim PTX: Kernel _Z18spRadix032A_kernelILin1EEvP6float2S1_jjjjf
GPGPU-Sim PTX: removing ptxinfo using "rm -f _ptx_kCustg _ptx2_VCvmRZ _ptx_kCustginfo"
GPGPU-Sim PTX: loading global with explicit initializers...  done.
GPGPU-Sim PTX: loading constants with explicit initializers...  done.
GPGPU-Sim PTX: allocating constant region for "c_Twiddle_4x4o16" from 0x100 to 0x180 (global memory space) 5
GPGPU-Sim PTX: parsing function _Z18spRadix016B_kernelILin1EEvP6float2S1_jjjjf
GPGPU-Sim PTX: allocating shared region for "__cuda_s_transpose36" from 0x100 to 0x900 (shared memory space)
GPGPU-Sim PTX: instruction assembly for function '_Z18spRadix016B_kernelILin1EEvP6float2S1_jjjjf'...   done.
GPGPU-Sim PTX: Finding postdominators for '_Z18spRadix016B_kernelILin1EEvP6float2S1_jjjjf'...
GPGPU-Sim PTX: Finding immediate postdominators for '_Z18spRadix016B_kernelILin1EEvP6float2S1_jjjjf'...
GPGPU-Sim PTX: parsing function _Z18spRadix016B_kernelILi1EEvP6float2S1_jjjjf
GPGPU-Sim PTX: allocating shared region for "__cuda_s_transpose2124" from 0x100 to 0x900 (shared memory space)
GPGPU-Sim PTX: instruction assembly for function '_Z18spRadix016B_kernelILi1EEvP6float2S1_jjjjf'...   done.
GPGPU-Sim PTX: Finding postdominators for '_Z18spRadix016B_kernelILi1EEvP6float2S1_jjjjf'...
GPGPU-Sim PTX: Finding immediate postdominators for '_Z18spRadix016B_kernelILi1EEvP6float2S1_jjjjf'...
GPGPU-Sim PTX: parsing function _Z19spRadix016B_kernel2ILin1EEvP6float2S1_jj
GPGPU-Sim PTX: allocating shared region for "__cuda_s_transpose4200" from 0x100 to 0xb00 (shared memory space)
GPGPU-Sim PTX: instruction assembly for function '_Z19spRadix016B_kernel2ILin1EEvP6float2S1_jj'...   done.
GPGPU-Sim PTX: Finding postdominators for '_Z19spRadix016B_kernel2ILin1EEvP6float2S1_jj'...
GPGPU-Sim PTX: Finding immediate postdominators for '_Z19spRadix016B_kernel2ILin1EEvP6float2S1_jj'...
GPGPU-Sim PTX: parsing function _Z19spRadix016B_kernel2ILi1EEvP6float2S1_jj
GPGPU-Sim PTX: allocating shared region for "__cuda_s_transpose6784" from 0x100 to 0xb00 (shared memory space)
GPGPU-Sim PTX: instruction assembly for function '_Z19spRadix016B_kernel2ILi1EEvP6float2S1_jj'...   done.
GPGPU-Sim PTX: Finding postdominators for '_Z19spRadix016B_kernel2ILi1EEvP6float2S1_jj'...
GPGPU-Sim PTX: Finding immediate postdominators for '_Z19spRadix016B_kernel2ILi1EEvP6float2S1_jj'...
GPGPU-Sim PTX: finished parsing EMBEDDED .ptx file _12.ptx
GPGPU-Sim PTX: extracting embedded .ptx to temporary file "_ptx_b5G7HK"
GPGPU-Sim PTX: generating ptxinfo using "ptxas -v _ptx2_WjGZzv --output-file /dev/null 2> _ptx_b5G7HKinfo"
GPGPU-Sim PTX: Kernel _Z19spRadix016B_kernel2ILi1EEvP6float2S1_jj
GPGPU-Sim PTX: Kernel _Z19spRadix016B_kernel2ILin1EEvP6float2S1_jj
GPGPU-Sim PTX: Kernel _Z18spRadix016B_kernelILi1EEvP6float2S1_jjjjf
GPGPU-Sim PTX: Kernel _Z18spRadix016B_kernelILin1EEvP6float2S1_jjjjf
GPGPU-Sim PTX: removing ptxinfo using "rm -f _ptx_b5G7HK _ptx2_WjGZzv _ptx_b5G7HKinfo"
GPGPU-Sim PTX: loading global with explicit initializers...  done.
GPGPU-Sim PTX: loading constants with explicit initializers...  done.
GPGPU-Sim PTX: encountered texture directive texComplex.
GPGPU-Sim PTX: encountered texture directive texComplex2.
GPGPU-Sim PTX: parsing function _Z18spRadix016A_kernelILin1EEvP6float2S1_jjjjf
GPGPU-Sim PTX: instruction assembly for function '_Z18spRadix016A_kernelILin1EEvP6float2S1_jjjjf'...   done.
GPGPU-Sim PTX: Finding postdominators for '_Z18spRadix016A_kernelILin1EEvP6float2S1_jjjjf'...
GPGPU-Sim PTX: Finding immediate postdominators for '_Z18spRadix016A_kernelILin1EEvP6float2S1_jjjjf'...
GPGPU-Sim PTX: parsing function _Z18spRadix016A_kernelILi1EEvP6float2S1_jjjjf
GPGPU-Sim PTX: instruction assembly for function '_Z18spRadix016A_kernelILi1EEvP6float2S1_jjjjf'...   done.
GPGPU-Sim PTX: Finding postdominators for '_Z18spRadix016A_kernelILi1EEvP6float2S1_jjjjf'...
GPGPU-Sim PTX: Finding immediate postdominators for '_Z18spRadix016A_kernelILi1EEvP6float2S1_jjjjf'...
GPGPU-Sim PTX: parsing function _Z19spRadix016A_kernel2ILin1EEvP6float2S1_jj
GPGPU-Sim PTX: allocating shared region for "__cuda_s_transpose104" from 0x100 to 0x1200 (shared memory space)
GPGPU-Sim PTX: instruction assembly for function '_Z19spRadix016A_kernel2ILin1EEvP6float2S1_jj'...   done.
GPGPU-Sim PTX: Finding postdominators for '_Z19spRadix016A_kernel2ILin1EEvP6float2S1_jj'...
GPGPU-Sim PTX: Finding immediate postdominators for '_Z19spRadix016A_kernel2ILin1EEvP6float2S1_jj'...
GPGPU-Sim PTX: parsing function _Z19spRadix016A_kernel2ILi1EEvP6float2S1_jj
GPGPU-Sim PTX: allocating shared region for "__cuda_s_transpose4480" from 0x100 to 0x1200 (shared memory space)
GPGPU-Sim PTX: instruction assembly for function '_Z19spRadix016A_kernel2ILi1EEvP6float2S1_jj'...   done.
GPGPU-Sim PTX: Finding postdominators for '_Z19spRadix016A_kernel2ILi1EEvP6float2S1_jj'...
GPGPU-Sim PTX: Finding immediate postdominators for '_Z19spRadix016A_kernel2ILi1EEvP6float2S1_jj'...
GPGPU-Sim PTX: finished parsing EMBEDDED .ptx file _13.ptx
GPGPU-Sim PTX: extracting embedded .ptx to temporary file "_ptx_vUSU1g"
GPGPU-Sim PTX: generating ptxinfo using "ptxas -v _ptx2_qjozv2 --output-file /dev/null 2> _ptx_vUSU1ginfo"
GPGPU-Sim PTX: Kernel _Z19spRadix016A_kernel2ILi1EEvP6float2S1_jj
GPGPU-Sim PTX: Kernel _Z19spRadix016A_kernel2ILin1EEvP6float2S1_jj
GPGPU-Sim PTX: Kernel _Z18spRadix016A_kernelILi1EEvP6float2S1_jjjjf
GPGPU-Sim PTX: Kernel _Z18spRadix016A_kernelILin1EEvP6float2S1_jjjjf
GPGPU-Sim PTX: removing ptxinfo using "rm -f _ptx_vUSU1g _ptx2_qjozv2 _ptx_vUSU1ginfo"
GPGPU-Sim PTX: loading global with explicit initializers...  done.
GPGPU-Sim PTX: loading constants with explicit initializers...  done.
GPGPU-Sim PTX: encountered texture directive texComplex.
GPGPU-Sim PTX: encountered texture directive texComplex2.
GPGPU-Sim PTX: parsing function _Z18spRadix008A_kernelILin1EEvP6float2S1_jjjjf
GPGPU-Sim PTX: instruction assembly for function '_Z18spRadix008A_kernelILin1EEvP6float2S1_jjjjf'...   done.
GPGPU-Sim PTX: Finding postdominators for '_Z18spRadix008A_kernelILin1EEvP6float2S1_jjjjf'...
GPGPU-Sim PTX: Finding immediate postdominators for '_Z18spRadix008A_kernelILin1EEvP6float2S1_jjjjf'...
GPGPU-Sim PTX: parsing function _Z18spRadix008A_kernelILi1EEvP6float2S1_jjjjf
GPGPU-Sim PTX: instruction assembly for function '_Z18spRadix008A_kernelILi1EEvP6float2S1_jjjjf'...   done.
GPGPU-Sim PTX: Finding postdominators for '_Z18spRadix008A_kernelILi1EEvP6float2S1_jjjjf'...
GPGPU-Sim PTX: Finding immediate postdominators for '_Z18spRadix008A_kernelILi1EEvP6float2S1_jjjjf'...
GPGPU-Sim PTX: parsing function _Z19spRadix008A_kernel2ILin1EEvP6float2S1_jj
GPGPU-Sim PTX: instruction assembly for function '_Z19spRadix008A_kernel2ILin1EEvP6float2S1_jj'...   done.
GPGPU-Sim PTX: Finding postdominators for '_Z19spRadix008A_kernel2ILin1EEvP6float2S1_jj'...
GPGPU-Sim PTX: Finding immediate postdominators for '_Z19spRadix008A_kernel2ILin1EEvP6float2S1_jj'...
GPGPU-Sim PTX: parsing function _Z19spRadix008A_kernel2ILi1EEvP6float2S1_jj
GPGPU-Sim PTX: instruction assembly for function '_Z19spRadix008A_kernel2ILi1EEvP6float2S1_jj'...   done.
GPGPU-Sim PTX: Finding postdominators for '_Z19spRadix008A_kernel2ILi1EEvP6float2S1_jj'...
GPGPU-Sim PTX: Finding immediate postdominators for '_Z19spRadix008A_kernel2ILi1EEvP6float2S1_jj'...
GPGPU-Sim PTX: finished parsing EMBEDDED .ptx file _14.ptx
GPGPU-Sim PTX: extracting embedded .ptx to temporary file "_ptx_SjX8KO"
GPGPU-Sim PTX: generating ptxinfo using "ptxas -v _ptx2_0NSK1A --output-file /dev/null 2> _ptx_SjX8KOinfo"
GPGPU-Sim PTX: Kernel _Z19spRadix008A_kernel2ILi1EEvP6float2S1_jj
GPGPU-Sim PTX: Kernel _Z19spRadix008A_kernel2ILin1EEvP6float2S1_jj
GPGPU-Sim PTX: Kernel _Z18spRadix008A_kernelILi1EEvP6float2S1_jjjjf
GPGPU-Sim PTX: Kernel _Z18spRadix008A_kernelILin1EEvP6float2S1_jjjjf
GPGPU-Sim PTX: removing ptxinfo using "rm -f _ptx_SjX8KO _ptx2_0NSK1A _ptx_SjX8KOinfo"
GPGPU-Sim PTX: loading global with explicit initializers...  done.
GPGPU-Sim PTX: loading constants with explicit initializers...  done.
GPGPU-Sim PTX: encountered texture directive texComplex.
GPGPU-Sim PTX: encountered texture directive texComplex2.
GPGPU-Sim PTX: parsing function _Z18spRadix004A_kernelILin1EEvP6float2S1_jjjjf
GPGPU-Sim PTX: instruction assembly for function '_Z18spRadix004A_kernelILin1EEvP6float2S1_jjjjf'...   done.
GPGPU-Sim PTX: Finding postdominators for '_Z18spRadix004A_kernelILin1EEvP6float2S1_jjjjf'...
GPGPU-Sim PTX: Finding immediate postdominators for '_Z18spRadix004A_kernelILin1EEvP6float2S1_jjjjf'...
GPGPU-Sim PTX: parsing function _Z18spRadix004A_kernelILi1EEvP6float2S1_jjjjf
GPGPU-Sim PTX: instruction assembly for function '_Z18spRadix004A_kernelILi1EEvP6float2S1_jjjjf'...   done.
GPGPU-Sim PTX: Finding postdominators for '_Z18spRadix004A_kernelILi1EEvP6float2S1_jjjjf'...
GPGPU-Sim PTX: Finding immediate postdominators for '_Z18spRadix004A_kernelILi1EEvP6float2S1_jjjjf'...
GPGPU-Sim PTX: parsing function _Z19spRadix004A_kernel2ILin1EEvP6float2S1_jj
GPGPU-Sim PTX: instruction assembly for function '_Z19spRadix004A_kernel2ILin1EEvP6float2S1_jj'...   done.
GPGPU-Sim PTX: Finding postdominators for '_Z19spRadix004A_kernel2ILin1EEvP6float2S1_jj'...
GPGPU-Sim PTX: Finding immediate postdominators for '_Z19spRadix004A_kernel2ILin1EEvP6float2S1_jj'...
GPGPU-Sim PTX: parsing function _Z19spRadix004A_kernel2ILi1EEvP6float2S1_jj
GPGPU-Sim PTX: instruction assembly for function '_Z19spRadix004A_kernel2ILi1EEvP6float2S1_jj'...   done.
GPGPU-Sim PTX: Finding postdominators for '_Z19spRadix004A_kernel2ILi1EEvP6float2S1_jj'...
GPGPU-Sim PTX: Finding immediate postdominators for '_Z19spRadix004A_kernel2ILi1EEvP6float2S1_jj'...
GPGPU-Sim PTX: finished parsing EMBEDDED .ptx file _15.ptx
GPGPU-Sim PTX: extracting embedded .ptx to temporary file "_ptx_rV95Jn"
[...]
GPGPU-Sim PTX: Kernel _Z23SP_c2c_radix7_sp_kernelifPvS_i11tfStride_st
GPGPU-Sim PTX: removing ptxinfo using "rm -f _ptx_CuOBi1 _ptx2_9D8KXd _ptx_CuOBi1info"
GPGPU-Sim PTX: loading global with explicit initializers...  done.
GPGPU-Sim PTX: loading constants with explicit initializers...  done.
GPGPU-Sim PTX: allocating shared region for "smem" from 0x100 to 0x100 (shared memory space)
GPGPU-Sim PTX: parsing function _Z23SP_c2c_radix6_sp_kernelifPvS_i11tfStride_st
GPGPU-Sim PTX: instruction assembly for function '_Z23SP_c2c_radix6_sp_kernelifPvS_i11tfStride_st'...   done.
GPGPU-Sim PTX: Finding postdominators for '_Z23SP_c2c_radix6_sp_kernelifPvS_i11tfStride_st'...
GPGPU-Sim PTX: Finding immediate postdominators for '_Z23SP_c2c_radix6_sp_kernelifPvS_i11tfStride_st'...
GPGPU-Sim PTX: finished parsing EMBEDDED .ptx file _75.ptx
GPGPU-Sim PTX: extracting embedded .ptx to temporary file "_ptx_g8bV4q"
GPGPU-Sim PTX: generating ptxinfo using "ptxas -v _ptx2_JDOPcE --output-file /dev/null 2> _ptx_g8bV4qinfo"
GPGPU-Sim PTX: Kernel _Z23SP_c2c_radix6_sp_kernelifPvS_i11tfStride_st
GPGPU-Sim PTX: removing ptxinfo using "rm -f _ptx_g8bV4q _ptx2_JDOPcE _ptx_g8bV4qinfo"
GPGPU-Sim PTX: loading global with explicit initializers...  done.
GPGPU-Sim PTX: loading constants with explicit initializers...  done.
GPGPU-Sim PTX: allocating shared region for "smem" from 0x100 to 0x100 (shared memory space)
GPGPU-Sim PTX: parsing function _Z23SP_c2c_radix5_sp_kernelifPvS_i11tfStride_st
GPGPU-Sim PTX: instruction assembly for function '_Z23SP_c2c_radix5_sp_kernelifPvS_i11tfStride_st'...   done.
GPGPU-Sim PTX: Finding postdominators for '_Z23SP_c2c_radix5_sp_kernelifPvS_i11tfStride_st'...
GPGPU-Sim PTX: Finding immediate postdominators for '_Z23SP_c2c_radix5_sp_kernelifPvS_i11tfStride_st'...
GPGPU-Sim PTX: finished parsing EMBEDDED .ptx file _76.ptx
GPGPU-Sim PTX: extracting embedded .ptx to temporary file "_ptx_4THrLR"
GPGPU-Sim PTX: generating ptxinfo using "ptxas -v _ptx2_taJNk5 --output-file /dev/null 2> _ptx_4THrLRinfo"
GPGPU-Sim PTX: Kernel _Z23SP_c2c_radix5_sp_kernelifPvS_i11tfStride_st
GPGPU-Sim PTX: removing ptxinfo using "rm -f _ptx_4THrLR _ptx2_taJNk5 _ptx_4THrLRinfo"
GPGPU-Sim PTX: loading global with explicit initializers...  done.
GPGPU-Sim PTX: loading constants with explicit initializers...  done.
GPGPU-Sim PTX: allocating shared region for "smem" from 0x100 to 0x100 (shared memory space)
GPGPU-Sim PTX: parsing function _Z23SP_c2c_radix4_sp_kernelifiPvS_i11tfStride_st
GPGPU-Sim PTX: instruction assembly for function '_Z23SP_c2c_radix4_sp_kernelifiPvS_i11tfStride_st'...   done.
GPGPU-Sim PTX: Finding postdominators for '_Z23SP_c2c_radix4_sp_kernelifiPvS_i11tfStride_st'...
GPGPU-Sim PTX: Finding immediate postdominators for '_Z23SP_c2c_radix4_sp_kernelifiPvS_i11tfStride_st'...
GPGPU-Sim PTX: finished parsing EMBEDDED .ptx file _77.ptx
GPGPU-Sim PTX: extracting embedded .ptx to temporary file "_ptx_2kmpjj"
GPGPU-Sim PTX: generating ptxinfo using "ptxas -v _ptx2_VgSKix --output-file /dev/null 2> _ptx_2kmpjjinfo"
GPGPU-Sim PTX: Kernel _Z23SP_c2c_radix4_sp_kernelifiPvS_i11tfStride_st
GPGPU-Sim PTX: removing ptxinfo using "rm -f _ptx_2kmpjj _ptx2_VgSKix _ptx_2kmpjjinfo"
GPGPU-Sim PTX: loading global with explicit initializers...  done.
GPGPU-Sim PTX: loading constants with explicit initializers...  done.
GPGPU-Sim PTX: allocating shared region for "smem" from 0x100 to 0x100 (shared memory space)
GPGPU-Sim PTX: parsing function _Z23SP_c2c_radix3_sp_kernelifPvS_i11tfStride_st
GPGPU-Sim PTX: instruction assembly for function '_Z23SP_c2c_radix3_sp_kernelifPvS_i11tfStride_st'...   done.
GPGPU-Sim PTX: Finding postdominators for '_Z23SP_c2c_radix3_sp_kernelifPvS_i11tfStride_st'...
GPGPU-Sim PTX: Finding immediate postdominators for '_Z23SP_c2c_radix3_sp_kernelifPvS_i11tfStride_st'...
GPGPU-Sim PTX: finished parsing EMBEDDED .ptx file _78.ptx
GPGPU-Sim PTX: extracting embedded .ptx to temporary file "_ptx_00l6FL"
GPGPU-Sim PTX: generating ptxinfo using "ptxas -v _ptx2_1Oj93Z --output-file /dev/null 2> _ptx_00l6FLinfo"
GPGPU-Sim PTX: Kernel _Z23SP_c2c_radix3_sp_kernelifPvS_i11tfStride_st
GPGPU-Sim PTX: removing ptxinfo using "rm -f _ptx_00l6FL _ptx2_1Oj93Z _ptx_00l6FLinfo"
GPGPU-Sim PTX: loading global with explicit initializers...  done.
GPGPU-Sim PTX: loading constants with explicit initializers...  done.
GPGPU-Sim PTX: allocating shared region for "smem" from 0x100 to 0x100 (shared memory space)
GPGPU-Sim PTX: parsing function _Z23SP_c2c_radix2_sp_kernelifiPvS_i11tfStride_st
GPGPU-Sim PTX: instruction assembly for function '_Z23SP_c2c_radix2_sp_kernelifiPvS_i11tfStride_st'...   done.
GPGPU-Sim PTX: Finding postdominators for '_Z23SP_c2c_radix2_sp_kernelifiPvS_i11tfStride_st'...
GPGPU-Sim PTX: Finding immediate postdominators for '_Z23SP_c2c_radix2_sp_kernelifiPvS_i11tfStride_st'...
GPGPU-Sim PTX: finished parsing EMBEDDED .ptx file _79.ptx
GPGPU-Sim PTX: extracting embedded .ptx to temporary file "_ptx_Wn4HOe"
GPGPU-Sim PTX: generating ptxinfo using "ptxas -v _ptx2_dmuUzt --output-file /dev/null 2> _ptx_Wn4HOeinfo"
GPGPU-Sim PTX: Kernel _Z23SP_c2c_radix2_sp_kernelifiPvS_i11tfStride_st
GPGPU-Sim PTX: removing ptxinfo using "rm -f _ptx_Wn4HOe _ptx2_dmuUzt _ptx_Wn4HOeinfo"
GPGPU-Sim PTX: loading global with explicit initializers...  done.
GPGPU-Sim PTX: loading constants with explicit initializers...  done.
GPGPU-Sim PTX: allocating shared region for "smem" from 0x100 to 0x100 (shared memory space)
GPGPU-Sim PTX: parsing function _Z25SP_c2c_radix2_mpsm_kernelifiPvS_i11tfStride_st
GPGPU-Sim PTX: instruction assembly for function '_Z25SP_c2c_radix2_mpsm_kernelifiPvS_i11tfStride_st'...   done.
GPGPU-Sim PTX: Finding postdominators for '_Z25SP_c2c_radix2_mpsm_kernelifiPvS_i11tfStride_st'...
GPGPU-Sim PTX: Finding immediate postdominators for '_Z25SP_c2c_radix2_mpsm_kernelifiPvS_i11tfStride_st'...
GPGPU-Sim PTX: parsing function _Z25SP_c2c_radix2_mpgm_kernelifiiPvS_i11tfStride_st
GPGPU-Sim PTX: instruction assembly for function '_Z25SP_c2c_radix2_mpgm_kernelifiiPvS_i11tfStride_st'...   done.
GPGPU-Sim PTX: Finding postdominators for '_Z25SP_c2c_radix2_mpgm_kernelifiiPvS_i11tfStride_st'...
GPGPU-Sim PTX: Finding immediate postdominators for '_Z25SP_c2c_radix2_mpgm_kernelifiiPvS_i11tfStride_st'...
GPGPU-Sim PTX: finished parsing EMBEDDED .ptx file _80.ptx
GPGPU-Sim PTX: extracting embedded .ptx to temporary file "_ptx_cZiLII"
GPGPU-Sim PTX: generating ptxinfo using "ptxas -v _ptx2_l7mmSX --output-file /dev/null 2> _ptx_cZiLIIinfo"
GPGPU-Sim PTX: Kernel _Z25SP_c2c_radix2_mpgm_kernelifiiPvS_i11tfStride_st
GPGPU-Sim PTX: Kernel _Z25SP_c2c_radix2_mpsm_kernelifiPvS_i11tfStride_st
GPGPU-Sim PTX: removing ptxinfo using "rm -f _ptx_cZiLII _ptx2_l7mmSX _ptx_cZiLIIinfo"
GPGPU-Sim PTX: loading global with explicit initializers...  done.
GPGPU-Sim PTX: loading constants with explicit initializers...  done.
GPGPU-Sim PTX: allocating shared region for "smem" from 0x100 to 0x100 (shared memory space)
GPGPU-Sim PTX: encountered texture directive cdtexref.
GPGPU-Sim PTX: encountered texture directive rdtexref.
GPGPU-Sim PTX: parsing function _Z23SP_c2c_radix2_mp_kernelifPvS_iiiii11tfStride_st
GPGPU-Sim PTX: instruction assembly for function '_Z23SP_c2c_radix2_mp_kernelifPvS_iiiii11tfStride_st'...   done.
GPGPU-Sim PTX: Finding postdominators for '_Z23SP_c2c_radix2_mp_kernelifPvS_iiiii11tfStride_st'...
GPGPU-Sim PTX: Finding immediate postdominators for '_Z23SP_c2c_radix2_mp_kernelifPvS_iiiii11tfStride_st'...
GPGPU-Sim PTX: parsing function _Z23SP_c2c_radix3_mp_kernelifPvS_iiiii11tfStride_st
GPGPU-Sim PTX: instruction assembly for function '_Z23SP_c2c_radix3_mp_kernelifPvS_iiiii11tfStride_st'...   done.
GPGPU-Sim PTX: Finding postdominators for '_Z23SP_c2c_radix3_mp_kernelifPvS_iiiii11tfStride_st'...
GPGPU-Sim PTX: Finding immediate postdominators for '_Z23SP_c2c_radix3_mp_kernelifPvS_iiiii11tfStride_st'...
GPGPU-Sim PTX: parsing function _Z23SP_c2c_radix4_mp_kernelifPvS_iiiii11tfStride_st
GPGPU-Sim PTX: instruction assembly for function '_Z23SP_c2c_radix4_mp_kernelifPvS_iiiii11tfStride_st'...   done.
GPGPU-Sim PTX: Finding postdominators for '_Z23SP_c2c_radix4_mp_kernelifPvS_iiiii11tfStride_st'...
GPGPU-Sim PTX: Finding immediate postdominators for '_Z23SP_c2c_radix4_mp_kernelifPvS_iiiii11tfStride_st'...
GPGPU-Sim PTX: parsing function _Z23SP_c2c_radix5_mp_kernelifPvS_iiiii11tfStride_st
GPGPU-Sim PTX: instruction assembly for function '_Z23SP_c2c_radix5_mp_kernelifPvS_iiiii11tfStride_st'...   done.
GPGPU-Sim PTX: Finding postdominators for '_Z23SP_c2c_radix5_mp_kernelifPvS_iiiii11tfStride_st'...
GPGPU-Sim PTX: Finding immediate postdominators for '_Z23SP_c2c_radix5_mp_kernelifPvS_iiiii11tfStride_st'...
GPGPU-Sim PTX: parsing function _Z23SP_c2c_radix6_mp_kernelifPvS_iiiii11tfStride_st
GPGPU-Sim PTX: instruction assembly for function '_Z23SP_c2c_radix6_mp_kernelifPvS_iiiii11tfStride_st'...   done.
GPGPU-Sim PTX: Finding postdominators for '_Z23SP_c2c_radix6_mp_kernelifPvS_iiiii11tfStride_st'...
GPGPU-Sim PTX: Finding immediate postdominators for '_Z23SP_c2c_radix6_mp_kernelifPvS_iiiii11tfStride_st'...
GPGPU-Sim PTX: parsing function _Z23SP_c2c_radix7_mp_kernelifPvS_iiiii11tfStride_st
GPGPU-Sim PTX: instruction assembly for function '_Z23SP_c2c_radix7_mp_kernelifPvS_iiiii11tfStride_st'...   done.
GPGPU-Sim PTX: Finding postdominators for '_Z23SP_c2c_radix7_mp_kernelifPvS_iiiii11tfStride_st'...
GPGPU-Sim PTX: Finding immediate postdominators for '_Z23SP_c2c_radix7_mp_kernelifPvS_iiiii11tfStride_st'...
GPGPU-Sim PTX: parsing function _Z23SP_c2c_radixM_mp_kernelifPvS_iiiii11tfStride_st
GPGPU-Sim PTX: instruction assembly for function '_Z23SP_c2c_radixM_mp_kernelifPvS_iiiii11tfStride_st'...   done.
GPGPU-Sim PTX: Finding postdominators for '_Z23SP_c2c_radixM_mp_kernelifPvS_iiiii11tfStride_st'...
GPGPU-Sim PTX: Finding immediate postdominators for '_Z23SP_c2c_radixM_mp_kernelifPvS_iiiii11tfStride_st'...
GPGPU-Sim PTX: finished parsing EMBEDDED .ptx file _81.ptx
GPGPU-Sim PTX: extracting embedded .ptx to temporary file "_ptx_nkLxvd"
GPGPU-Sim PTX: generating ptxinfo using "ptxas -v _ptx2_c0Y19s --output-file /dev/null 2> _ptx_nkLxvdinfo"
GPGPU-Sim PTX: Kernel _Z23SP_c2c_radixM_mp_kernelifPvS_iiiii11tfStride_st
GPGPU-Sim PTX: Kernel _Z23SP_c2c_radix7_mp_kernelifPvS_iiiii11tfStride_st
GPGPU-Sim PTX: Kernel _Z23SP_c2c_radix6_mp_kernelifPvS_iiiii11tfStride_st
GPGPU-Sim PTX: Kernel _Z23SP_c2c_radix5_mp_kernelifPvS_iiiii11tfStride_st
GPGPU-Sim PTX: Kernel _Z23SP_c2c_radix4_mp_kernelifPvS_iiiii11tfStride_st
GPGPU-Sim PTX: Kernel _Z23SP_c2c_radix3_mp_kernelifPvS_iiiii11tfStride_st
GPGPU-Sim PTX: Kernel _Z23SP_c2c_radix2_mp_kernelifPvS_iiiii11tfStride_st
GPGPU-Sim PTX: removing ptxinfo using "rm -f _ptx_nkLxvd _ptx2_c0Y19s _ptx_nkLxvdinfo"
GPGPU-Sim PTX: loading global with explicit initializers...  done.
GPGPU-Sim PTX: loading constants with explicit initializers...  done.
GPGPU-Sim PTX: allocating shared region for "smem" from 0x100 to 0x100 (shared memory space)
GPGPU-Sim PTX: parsing function _Z23SP_c2c_transpose_kerneliiiiiiPvS_
GPGPU-Sim PTX: instruction assembly for function '_Z23SP_c2c_transpose_kerneliiiiiiPvS_'...   done.
GPGPU-Sim PTX: Finding postdominators for '_Z23SP_c2c_transpose_kerneliiiiiiPvS_'...
GPGPU-Sim PTX: Finding immediate postdominators for '_Z23SP_c2c_transpose_kerneliiiiiiPvS_'...
GPGPU-Sim PTX: finished parsing EMBEDDED .ptx file _82.ptx
GPGPU-Sim PTX: extracting embedded .ptx to temporary file "_ptx_HzayoJ"
GPGPU-Sim PTX: generating ptxinfo using "ptxas -v _ptx2_8aQLDZ --output-file /dev/null 2> _ptx_HzayoJinfo"
GPGPU-Sim PTX: Kernel _Z23SP_c2c_transpose_kerneliiiiiiPvS_
GPGPU-Sim PTX: removing ptxinfo using "rm -f _ptx_HzayoJ _ptx2_8aQLDZ _ptx_HzayoJinfo"
GPGPU-Sim PTX: loading global with explicit initializers...  done.
GPGPU-Sim PTX: loading constants with explicit initializers...  done.
GPGPU-Sim PTX: allocating shared region for "smem" from 0x100 to 0x100 (shared memory space)
GPGPU-Sim PTX: encountered texture directive cdtexref.
GPGPU-Sim PTX: encountered texture directive rdtexref.
GPGPU-Sim PTX: parsing function _Z22SP_c2cf_copy_2d_kerneliPvS_11tfStride_st
GPGPU-Sim PTX: instruction assembly for function '_Z22SP_c2cf_copy_2d_kerneliPvS_11tfStride_st'...   done.
GPGPU-Sim PTX: Finding postdominators for '_Z22SP_c2cf_copy_2d_kerneliPvS_11tfStride_st'...
GPGPU-Sim PTX: Finding immediate postdominators for '_Z22SP_c2cf_copy_2d_kerneliPvS_11tfStride_st'...
GPGPU-Sim PTX: parsing function _Z22SP_c2ch_copy_2d_kerneliPvS_11tfStride_st
GPGPU-Sim PTX: instruction assembly for function '_Z22SP_c2ch_copy_2d_kerneliPvS_11tfStride_st'...   done.
GPGPU-Sim PTX: Finding postdominators for '_Z22SP_c2ch_copy_2d_kerneliPvS_11tfStride_st'...
GPGPU-Sim PTX: Finding immediate postdominators for '_Z22SP_c2ch_copy_2d_kerneliPvS_11tfStride_st'...
GPGPU-Sim PTX: parsing function _Z21SP_r2c_copy_2d_kerneliPvS_11tfStride_st
GPGPU-Sim PTX: instruction assembly for function '_Z21SP_r2c_copy_2d_kerneliPvS_11tfStride_st'...   done.
GPGPU-Sim PTX: Finding postdominators for '_Z21SP_r2c_copy_2d_kerneliPvS_11tfStride_st'...
GPGPU-Sim PTX: Finding immediate postdominators for '_Z21SP_r2c_copy_2d_kerneliPvS_11tfStride_st'...
GPGPU-Sim PTX: parsing function _Z21SP_c2r_copy_2d_kerneliPvS_11tfStride_st
GPGPU-Sim PTX: instruction assembly for function '_Z21SP_c2r_copy_2d_kerneliPvS_11tfStride_st'...   done.
GPGPU-Sim PTX: Finding postdominators for '_Z21SP_c2r_copy_2d_kerneliPvS_11tfStride_st'...
GPGPU-Sim PTX: Finding immediate postdominators for '_Z21SP_c2r_copy_2d_kerneliPvS_11tfStride_st'...
GPGPU-Sim PTX: parsing function _Z22SP_c2cf_copy_1d_kerneliPvS_11tfStride_st
GPGPU-Sim PTX: instruction assembly for function '_Z22SP_c2cf_copy_1d_kerneliPvS_11tfStride_st'...   done.
GPGPU-Sim PTX: Finding postdominators for '_Z22SP_c2cf_copy_1d_kerneliPvS_11tfStride_st'...
GPGPU-Sim PTX: Finding immediate postdominators for '_Z22SP_c2cf_copy_1d_kerneliPvS_11tfStride_st'...
GPGPU-Sim PTX: parsing function _Z22SP_c2ch_copy_1d_kerneliPvS_11tfStride_st
GPGPU-Sim PTX: instruction assembly for function '_Z22SP_c2ch_copy_1d_kerneliPvS_11tfStride_st'...   done.
GPGPU-Sim PTX: Finding postdominators for '_Z22SP_c2ch_copy_1d_kerneliPvS_11tfStride_st'...
GPGPU-Sim PTX: Finding immediate postdominators for '_Z22SP_c2ch_copy_1d_kerneliPvS_11tfStride_st'...
GPGPU-Sim PTX: parsing function _Z21SP_r2c_copy_1d_kerneliPvS_11tfStride_st
GPGPU-Sim PTX: instruction assembly for function '_Z21SP_r2c_copy_1d_kerneliPvS_11tfStride_st'...   done.
GPGPU-Sim PTX: Finding postdominators for '_Z21SP_r2c_copy_1d_kerneliPvS_11tfStride_st'...
GPGPU-Sim PTX: Finding immediate postdominators for '_Z21SP_r2c_copy_1d_kerneliPvS_11tfStride_st'...
GPGPU-Sim PTX: parsing function _Z21SP_c2r_copy_1d_kerneliPvS_11tfStride_st
GPGPU-Sim PTX: instruction assembly for function '_Z21SP_c2r_copy_1d_kerneliPvS_11tfStride_st'...   done.
GPGPU-Sim PTX: Finding postdominators for '_Z21SP_c2r_copy_1d_kerneliPvS_11tfStride_st'...
GPGPU-Sim PTX: Finding immediate postdominators for '_Z21SP_c2r_copy_1d_kerneliPvS_11tfStride_st'...
GPGPU-Sim PTX: finished parsing EMBEDDED .ptx file _83.ptx
GPGPU-Sim PTX: extracting embedded .ptx to temporary file "_ptx_FEdAig"
GPGPU-Sim PTX: generating ptxinfo using "ptxas -v _ptx2_Pfb9Xw --output-file /dev/null 2> _ptx_FEdAiginfo"
GPGPU-Sim PTX: Kernel _Z21SP_c2r_copy_1d_kerneliPvS_11tfStride_st
GPGPU-Sim PTX: Kernel _Z21SP_r2c_copy_1d_kerneliPvS_11tfStride_st
GPGPU-Sim PTX: Kernel _Z22SP_c2ch_copy_1d_kerneliPvS_11tfStride_st
GPGPU-Sim PTX: Kernel _Z22SP_c2cf_copy_1d_kerneliPvS_11tfStride_st
GPGPU-Sim PTX: Kernel _Z21SP_c2r_copy_2d_kerneliPvS_11tfStride_st
GPGPU-Sim PTX: Kernel _Z21SP_r2c_copy_2d_kerneliPvS_11tfStride_st
GPGPU-Sim PTX: Kernel _Z22SP_c2ch_copy_2d_kerneliPvS_11tfStride_st
GPGPU-Sim PTX: Kernel _Z22SP_c2cf_copy_2d_kerneliPvS_11tfStride_st
GPGPU-Sim PTX: removing ptxinfo using "rm -f _ptx_FEdAig _ptx2_Pfb9Xw _ptx_FEdAiginfo"
GPGPU-Sim PTX: loading global with explicit initializers...  done.
GPGPU-Sim PTX: loading constants with explicit initializers...  done.
GPGPU-Sim PTX: allocating shared region for "smem" from 0x100 to 0x100 (shared memory space)
GPGPU-Sim PTX: parsing function _Z21SP_c2c_twiddle_kernelifPvS_ii11tfStride_st
GPGPU-Sim PTX: instruction assembly for function '_Z21SP_c2c_twiddle_kernelifPvS_ii11tfStride_st'...   done.
GPGPU-Sim PTX: Finding postdominators for '_Z21SP_c2c_twiddle_kernelifPvS_ii11tfStride_st'...
GPGPU-Sim PTX: Finding immediate postdominators for '_Z21SP_c2c_twiddle_kernelifPvS_ii11tfStride_st'...
GPGPU-Sim PTX: finished parsing EMBEDDED .ptx file _84.ptx
GPGPU-Sim PTX: extracting embedded .ptx to temporary file "_ptx_AvxE1N"
GPGPU-Sim PTX: generating ptxinfo using "ptxas -v _ptx2_ZbjM54 --output-file /dev/null 2> _ptx_AvxE1Ninfo"
GPGPU-Sim PTX: Kernel _Z21SP_c2c_twiddle_kernelifPvS_ii11tfStride_st
GPGPU-Sim PTX: removing ptxinfo using "rm -f _ptx_AvxE1N _ptx2_ZbjM54 _ptx_AvxE1Ninfo"
GPGPU-Sim PTX: loading global with explicit initializers...  done.
GPGPU-Sim PTX: loading constants with explicit initializers...  done.
GPGPU-Sim PTX: finished parsing EMBEDDED .ptx file _85.ptx
GPGPU-Sim PTX: extracting embedded .ptx to temporary file "_ptx_6EwHxm"
GPGPU-Sim PTX: generating ptxinfo using "ptxas -v _ptx2_PFng0D --output-file /dev/null 2> _ptx_6EwHxminfo"
GPGPU-Sim PTX: Kernel '__cuda_dummy_entry__' in _85.ptx not found. Ignoring.
GPGPU-Sim PTX: removing ptxinfo using "rm -f _ptx_6EwHxm _ptx2_PFng0D _ptx_6EwHxminfo"
GPGPU-Sim PTX: loading global with explicit initializers...  done.
GPGPU-Sim PTX: loading constants with explicit initializers...  done.
GPGPU-Sim PTX: finished parsing EMBEDDED .ptx file _86.ptx
GPGPU-Sim PTX: extracting embedded .ptx to temporary file "_ptx_YXbfMV"
GPGPU-Sim PTX: generating ptxinfo using "ptxas -v _ptx2_zcbMyd --output-file /dev/null 2> _ptx_YXbfMVinfo"
GPGPU-Sim PTX: Kernel '__cuda_dummy_entry__' in _86.ptx not found. Ignoring.
GPGPU-Sim PTX: removing ptxinfo using "rm -f _ptx_YXbfMV _ptx2_zcbMyd _ptx_YXbfMVinfo"
GPGPU-Sim PTX: loading global with explicit initializers...  done.
GPGPU-Sim PTX: loading constants with explicit initializers...  done.
GPGPU-Sim PTX: parsing function _Z27ComplexPointwiseMulAndScaleP6float2PKS_if
GPGPU-Sim PTX: instruction assembly for function '_Z27ComplexPointwiseMulAndScaleP6float2PKS_if'...   done.
GPGPU-Sim PTX: Finding postdominators for '_Z27ComplexPointwiseMulAndScaleP6float2PKS_if'...
GPGPU-Sim PTX: Finding immediate postdominators for '_Z27ComplexPointwiseMulAndScaleP6float2PKS_if'...
GPGPU-Sim PTX: finished parsing EMBEDDED .ptx file _87.ptx
GPGPU-Sim PTX: extracting embedded .ptx to temporary file "_ptx_UsW6Ev"
GPGPU-Sim PTX: generating ptxinfo using "ptxas -v _ptx2_TZw3LN --output-file /dev/null 2> _ptx_UsW6Evinfo"
GPGPU-Sim PTX: Kernel _Z27ComplexPointwiseMulAndScaleP6float2PKS_if
GPGPU-Sim PTX: removing ptxinfo using "rm -f _ptx_UsW6Ev _ptx2_TZw3LN _ptx_UsW6Evinfo"
GPGPU-Sim PTX: loading global with explicit initializers...  done.
GPGPU-Sim PTX: loading constants with explicit initializers...  done.
GPGPU-Sim PTX: Program parsing completed (max 2832 registers used per thread).
GPGPU-Sim PTX: allocating 448 bytes on GPU starting at address 0x10000000
GPGPU-Sim PTX: cudaMallocing 448 bytes starting at 0x10000000..
GPGPU-Sim PTX: cudaMemcpy(): devPtr = 0x10000000
GPGPU-Sim PTX: copying 448 bytes from CPU[0xb12be60] to GPU[0x10000000] ...  done.
GPGPU-Sim PTX: allocating 448 bytes on GPU starting at address 0x100001c0
GPGPU-Sim PTX: cudaMallocing 448 bytes starting at 0x100001c0..
GPGPU-Sim PTX: cudaMemcpy(): devPtr = 0x100001c0
GPGPU-Sim PTX: copying 448 bytes from CPU[0xb12c030] to GPU[0x100001c0] ...  done.


GPGPU-Sim PTX: Execution error: CUDA API function "cudaError_t cudaFuncGetAttributes(cudaFuncAttributes*, const char*)()" has not been implemented yet.
                 [$GPGPUSIM_ROOT/libcuda/cuda_runtime_api.cc around line 1236]


