

        *** GPGPU-Sim version 2.1.1b (beta) ***


GPGPU-Sim PTX: __cudaRegisterFunction _Z33ztrsm_r_up_tr_main_fulltile_hw_nu17cublasZtrsmParams : 0x7f33c7d88650
GPGPU-Sim PTX: __cudaRegisterFunction _Z33ztrsm_r_up_nt_main_fulltile_hw_nu17cublasZtrsmParams : 0x7f33c7d886b0
GPGPU-Sim PTX: __cudaRegisterFunction _Z33ztrsm_r_lo_tr_main_fulltile_hw_nu17cublasZtrsmParams : 0x7f33c7d88710
GPGPU-Sim PTX: __cudaRegisterFunction _Z33ztrsm_r_lo_nt_main_fulltile_hw_nu17cublasZtrsmParams : 0x7f33c7d88770
GPGPU-Sim PTX: __cudaRegisterFunction _Z24ztrsm_r_up_tr_main_hw_nu17cublasZtrsmParams : 0x7f33c7d887d0
GPGPU-Sim PTX: __cudaRegisterFunction _Z24ztrsm_r_up_nt_main_hw_nu17cublasZtrsmParams : 0x7f33c7d88830
GPGPU-Sim PTX: __cudaRegisterFunction _Z24ztrsm_r_lo_tr_main_hw_nu17cublasZtrsmParams : 0x7f33c7d88890
GPGPU-Sim PTX: __cudaRegisterFunction _Z24ztrsm_r_lo_nt_main_hw_nu17cublasZtrsmParams : 0x7f33c7d888f0
GPGPU-Sim PTX: __cudaRegisterFunction _Z33ztrsm_r_up_tr_main_fulltile_sw_nu17cublasZtrsmParams : 0x7f33c7d88950
GPGPU-Sim PTX: __cudaRegisterFunction _Z33ztrsm_r_up_nt_main_fulltile_sw_nu17cublasZtrsmParams : 0x7f33c7d889b0
GPGPU-Sim PTX: __cudaRegisterFunction _Z33ztrsm_r_lo_tr_main_fulltile_sw_nu17cublasZtrsmParams : 0x7f33c7d88a10
GPGPU-Sim PTX: __cudaRegisterFunction _Z33ztrsm_r_lo_nt_main_fulltile_sw_nu17cublasZtrsmParams : 0x7f33c7d88a70
GPGPU-Sim PTX: __cudaRegisterFunction _Z24ztrsm_r_up_tr_main_sw_nu17cublasZtrsmParams : 0x7f33c7d88ad0
GPGPU-Sim PTX: __cudaRegisterFunction _Z24ztrsm_r_up_nt_main_sw_nu17cublasZtrsmParams : 0x7f33c7d88b30
GPGPU-Sim PTX: __cudaRegisterFunction _Z24ztrsm_r_lo_tr_main_sw_nu17cublasZtrsmParams : 0x7f33c7d88b90
GPGPU-Sim PTX: __cudaRegisterFunction _Z24ztrsm_r_lo_nt_main_sw_nu17cublasZtrsmParams : 0x7f33c7d88bf0
GPGPU-Sim PTX: __cudaRegisterFunction _Z30ztrsm_r_up_tr_main_fulltile_hw17cublasZtrsmParams : 0x7f33c7d88c50
GPGPU-Sim PTX: __cudaRegisterFunction _Z30ztrsm_r_up_nt_main_fulltile_hw17cublasZtrsmParams : 0x7f33c7d88cb0
GPGPU-Sim PTX: __cudaRegisterFunction _Z30ztrsm_r_lo_tr_main_fulltile_hw17cublasZtrsmParams : 0x7f33c7d88d10
GPGPU-Sim PTX: __cudaRegisterFunction _Z30ztrsm_r_lo_nt_main_fulltile_hw17cublasZtrsmParams : 0x7f33c7d88d70
GPGPU-Sim PTX: __cudaRegisterFunction _Z21ztrsm_r_up_tr_main_hw17cublasZtrsmParams : 0x7f33c7d88dd0
GPGPU-Sim PTX: __cudaRegisterFunction _Z21ztrsm_r_up_nt_main_hw17cublasZtrsmParams : 0x7f33c7d88e30
GPGPU-Sim PTX: __cudaRegisterFunction _Z21ztrsm_r_lo_tr_main_hw17cublasZtrsmParams : 0x7f33c7d88e90
GPGPU-Sim PTX: __cudaRegisterFunction _Z21ztrsm_r_lo_nt_main_hw17cublasZtrsmParams : 0x7f33c7d88ef0
GPGPU-Sim PTX: __cudaRegisterFunction _Z30ztrsm_r_up_tr_main_fulltile_sw17cublasZtrsmParams : 0x7f33c7d88f50
GPGPU-Sim PTX: __cudaRegisterFunction _Z30ztrsm_r_up_nt_main_fulltile_sw17cublasZtrsmParams : 0x7f33c7d88fb0
GPGPU-Sim PTX: __cudaRegisterFunction _Z30ztrsm_r_lo_tr_main_fulltile_sw17cublasZtrsmParams : 0x7f33c7d89010
GPGPU-Sim PTX: __cudaRegisterFunction _Z30ztrsm_r_lo_nt_main_fulltile_sw17cublasZtrsmParams : 0x7f33c7d89070
GPGPU-Sim PTX: __cudaRegisterFunction _Z21ztrsm_r_up_tr_main_sw17cublasZtrsmParams : 0x7f33c7d890d0
GPGPU-Sim PTX: __cudaRegisterFunction _Z21ztrsm_r_up_nt_main_sw17cublasZtrsmParams : 0x7f33c7d89130
GPGPU-Sim PTX: __cudaRegisterFunction _Z21ztrsm_r_lo_tr_main_sw17cublasZtrsmParams : 0x7f33c7d89190
GPGPU-Sim PTX: __cudaRegisterFunction _Z21ztrsm_r_lo_nt_main_sw17cublasZtrsmParams : 0x7f33c7d891f0
GPGPU-Sim PTX: __cudaRegisterFunction _Z33ztrsm_l_up_tr_main_fulltile_sw_nu17cublasZtrsmParams : 0x7f33c7d89250
GPGPU-Sim PTX: __cudaRegisterFunction _Z33ztrsm_l_up_nt_main_fulltile_sw_nu17cublasZtrsmParams : 0x7f33c7d892b0
GPGPU-Sim PTX: __cudaRegisterFunction _Z33ztrsm_l_lo_tr_main_fulltile_sw_nu17cublasZtrsmParams : 0x7f33c7d89310
GPGPU-Sim PTX: __cudaRegisterFunction _Z33ztrsm_l_lo_nt_main_fulltile_sw_nu17cublasZtrsmParams : 0x7f33c7d89370
GPGPU-Sim PTX: __cudaRegisterFunction _Z24ztrsm_l_up_tr_main_sw_nu17cublasZtrsmParams : 0x7f33c7d893d0
GPGPU-Sim PTX: __cudaRegisterFunction _Z24ztrsm_l_up_nt_main_sw_nu17cublasZtrsmParams : 0x7f33c7d89430
GPGPU-Sim PTX: __cudaRegisterFunction _Z24ztrsm_l_lo_tr_main_sw_nu17cublasZtrsmParams : 0x7f33c7d89490
GPGPU-Sim PTX: __cudaRegisterFunction _Z24ztrsm_l_lo_nt_main_sw_nu17cublasZtrsmParams : 0x7f33c7d894f0
GPGPU-Sim PTX: __cudaRegisterFunction _Z33ztrsm_l_up_tr_main_fulltile_hw_nu17cublasZtrsmParams : 0x7f33c7d89550
GPGPU-Sim PTX: __cudaRegisterFunction _Z33ztrsm_l_up_nt_main_fulltile_hw_nu17cublasZtrsmParams : 0x7f33c7d895b0
GPGPU-Sim PTX: __cudaRegisterFunction _Z33ztrsm_l_lo_tr_main_fulltile_hw_nu17cublasZtrsmParams : 0x7f33c7d89610
GPGPU-Sim PTX: __cudaRegisterFunction _Z33ztrsm_l_lo_nt_main_fulltile_hw_nu17cublasZtrsmParams : 0x7f33c7d89670
GPGPU-Sim PTX: __cudaRegisterFunction _Z24ztrsm_l_up_tr_main_hw_nu17cublasZtrsmParams : 0x7f33c7d896d0
GPGPU-Sim PTX: __cudaRegisterFunction _Z24ztrsm_l_up_nt_main_hw_nu17cublasZtrsmParams : 0x7f33c7d89730
GPGPU-Sim PTX: __cudaRegisterFunction _Z24ztrsm_l_lo_tr_main_hw_nu17cublasZtrsmParams : 0x7f33c7d89790
GPGPU-Sim PTX: __cudaRegisterFunction _Z24ztrsm_l_lo_nt_main_hw_nu17cublasZtrsmParams : 0x7f33c7d897f0
GPGPU-Sim PTX: __cudaRegisterFunction _Z30ztrsm_l_up_tr_main_fulltile_sw17cublasZtrsmParams : 0x7f33c7d89850
GPGPU-Sim PTX: __cudaRegisterFunction _Z30ztrsm_l_up_nt_main_fulltile_sw17cublasZtrsmParams : 0x7f33c7d898b0
GPGPU-Sim PTX: __cudaRegisterFunction _Z30ztrsm_l_lo_tr_main_fulltile_sw17cublasZtrsmParams : 0x7f33c7d89910
GPGPU-Sim PTX: __cudaRegisterFunction _Z30ztrsm_l_lo_nt_main_fulltile_sw17cublasZtrsmParams : 0x7f33c7d89970
GPGPU-Sim PTX: __cudaRegisterFunction _Z21ztrsm_l_up_tr_main_sw17cublasZtrsmParams : 0x7f33c7d899d0
GPGPU-Sim PTX: __cudaRegisterFunction _Z21ztrsm_l_up_nt_main_sw17cublasZtrsmParams : 0x7f33c7d89a30
GPGPU-Sim PTX: __cudaRegisterFunction _Z21ztrsm_l_lo_tr_main_sw17cublasZtrsmParams : 0x7f33c7d89a90
GPGPU-Sim PTX: __cudaRegisterFunction _Z21ztrsm_l_lo_nt_main_sw17cublasZtrsmParams : 0x7f33c7d89af0
GPGPU-Sim PTX: __cudaRegisterFunction _Z30ztrsm_l_up_tr_main_fulltile_hw17cublasZtrsmParams : 0x7f33c7d89b50
GPGPU-Sim PTX: __cudaRegisterFunction _Z30ztrsm_l_up_nt_main_fulltile_hw17cublasZtrsmParams : 0x7f33c7d89bb0
GPGPU-Sim PTX: __cudaRegisterFunction _Z30ztrsm_l_lo_tr_main_fulltile_hw17cublasZtrsmParams : 0x7f33c7d89c10
GPGPU-Sim PTX: __cudaRegisterFunction _Z30ztrsm_l_lo_nt_main_fulltile_hw17cublasZtrsmParams : 0x7f33c7d89c70
GPGPU-Sim PTX: __cudaRegisterFunction _Z21ztrsm_l_up_tr_main_hw17cublasZtrsmParams : 0x7f33c7d89cd0
GPGPU-Sim PTX: __cudaRegisterFunction _Z21ztrsm_l_up_nt_main_hw17cublasZtrsmParams : 0x7f33c7d89d30
GPGPU-Sim PTX: __cudaRegisterFunction _Z21ztrsm_l_lo_tr_main_hw17cublasZtrsmParams : 0x7f33c7d89d90
GPGPU-Sim PTX: __cudaRegisterFunction _Z21ztrsm_l_lo_nt_main_hw17cublasZtrsmParams : 0x7f33c7d89df0
GPGPU-Sim PTX: __cudaRegisterSharedVar
GPGPU-Sim PTX: __cudaRegisterSharedVar
GPGPU-Sim PTX: __cudaRegisterFunction _Z15zgemv_transpose17cublasZgemvParams : 0x7f33c7d86cb0
GPGPU-Sim PTX: __cudaRegisterFunction _Z5zgemv17cublasZgemvParams : 0x7f33c7d86d10
GPGPU-Sim PTX: __cudaRegisterFunction _Z10zscal_main17cublasZscalParams : 0x7f33c7d86860
GPGPU-Sim PTX: __cudaRegisterFunction _Z28zsyrk_lo_nt_main_hw_fulltile17cublasZsyrkParams : 0x7f33c7d85a50
GPGPU-Sim PTX: __cudaRegisterFunction _Z28zsyrk_up_nt_main_hw_fulltile17cublasZsyrkParams : 0x7f33c7d85ab0
GPGPU-Sim PTX: __cudaRegisterFunction _Z28zsyrk_lo_tr_main_hw_fulltile17cublasZsyrkParams : 0x7f33c7d85b10
GPGPU-Sim PTX: __cudaRegisterFunction _Z28zsyrk_up_tr_main_hw_fulltile17cublasZsyrkParams : 0x7f33c7d85b70
GPGPU-Sim PTX: __cudaRegisterFunction _Z28zsyrk_lo_nt_main_sw_fulltile17cublasZsyrkParams : 0x7f33c7d85bd0
GPGPU-Sim PTX: __cudaRegisterFunction _Z28zsyrk_up_nt_main_sw_fulltile17cublasZsyrkParams : 0x7f33c7d85c30
GPGPU-Sim PTX: __cudaRegisterFunction _Z28zsyrk_lo_tr_main_sw_fulltile17cublasZsyrkParams : 0x7f33c7d85c90
GPGPU-Sim PTX: __cudaRegisterFunction _Z28zsyrk_up_tr_main_sw_fulltile17cublasZsyrkParams : 0x7f33c7d85cf0
GPGPU-Sim PTX: __cudaRegisterFunction _Z19zsyrk_lo_nt_main_hw17cublasZsyrkParams : 0x7f33c7d85d50
GPGPU-Sim PTX: __cudaRegisterFunction _Z19zsyrk_up_nt_main_hw17cublasZsyrkParams : 0x7f33c7d85db0
GPGPU-Sim PTX: __cudaRegisterFunction _Z19zsyrk_lo_tr_main_hw17cublasZsyrkParams : 0x7f33c7d85e10
GPGPU-Sim PTX: __cudaRegisterFunction _Z19zsyrk_up_tr_main_hw17cublasZsyrkParams : 0x7f33c7d85e70
GPGPU-Sim PTX: __cudaRegisterFunction _Z19zsyrk_lo_nt_main_sw17cublasZsyrkParams : 0x7f33c7d85ed0
GPGPU-Sim PTX: __cudaRegisterFunction _Z19zsyrk_up_nt_main_sw17cublasZsyrkParams : 0x7f33c7d85f30
GPGPU-Sim PTX: __cudaRegisterFunction _Z19zsyrk_lo_tr_main_sw17cublasZsyrkParams : 0x7f33c7d85f90
GPGPU-Sim PTX: __cudaRegisterFunction _Z19zsyrk_up_tr_main_sw17cublasZsyrkParams : 0x7f33c7d85ff0
GPGPU-Sim PTX: __cudaRegisterSharedVar
GPGPU-Sim PTX: __cudaRegisterSharedVar
GPGPU-Sim PTX: __cudaRegisterFunction _Z15idamin_tex_main18cublasIdaminParams : 0x7f33c7d84970
GPGPU-Sim PTX: __cudaRegisterFunction _Z15idamin_gld_main18cublasIdaminParams : 0x7f33c7d849d0
GPGPU-Sim PTX: in __cudaRegisterTexture:
GPGPU-Sim PTX:   int dim = 1
GPGPU-Sim PTX:   int norm = 0
GPGPU-Sim PTX:   int ext = 0
GPGPU-Sim PTX:   Execution warning: Not finished implementing "void __cudaRegisterTexture(void**, const textureReference*, const void**, const char*, int, int, int)"
GPGPU-Sim PTX: __cudaRegisterSharedVar
GPGPU-Sim PTX: __cudaRegisterSharedVar
GPGPU-Sim PTX: __cudaRegisterFunction _Z15idamax_tex_main18cublasIdamaxParams : 0x7f33c7d83c00
GPGPU-Sim PTX: __cudaRegisterFunction _Z15idamax_gld_main18cublasIdamaxParams : 0x7f33c7d83c60
GPGPU-Sim PTX: in __cudaRegisterTexture:
GPGPU-Sim PTX:   int dim = 1
GPGPU-Sim PTX:   int norm = 0
GPGPU-Sim PTX:   int ext = 0
GPGPU-Sim PTX:   Execution warning: Not finished implementing "void __cudaRegisterTexture(void**, const textureReference*, const void**, const char*, int, int, int)"
GPGPU-Sim PTX: __cudaRegisterSharedVar
GPGPU-Sim PTX: __cudaRegisterSharedVar
GPGPU-Sim PTX: __cudaRegisterFunction _Z14dswap_tex_main17cublasDswapParams : 0x7f33c7d833a0
GPGPU-Sim PTX: __cudaRegisterFunction _Z14dswap_gld_main17cublasDswapParams : 0x7f33c7d83400
GPGPU-Sim PTX: in __cudaRegisterTexture:
GPGPU-Sim PTX:   int dim = 1
GPGPU-Sim PTX:   int norm = 0
GPGPU-Sim PTX:   int ext = 0
GPGPU-Sim PTX:   Execution warning: Not finished implementing "void __cudaRegisterTexture(void**, const textureReference*, const void**, const char*, int, int, int)"
GPGPU-Sim PTX: in __cudaRegisterTexture:
GPGPU-Sim PTX:   int dim = 1
GPGPU-Sim PTX:   int norm = 0
GPGPU-Sim PTX:   int ext = 0
GPGPU-Sim PTX:   Execution warning: Not finished implementing "void __cudaRegisterTexture(void**, const textureReference*, const void**, const char*, int, int, int)"
GPGPU-Sim PTX: __cudaRegisterFunction _Z14dscal_tex_main17cublasDscalParams : 0x7f33c7d82bb0
GPGPU-Sim PTX: __cudaRegisterFunction _Z14dscal_gld_main17cublasDscalParams : 0x7f33c7d82c10
GPGPU-Sim PTX: in __cudaRegisterTexture:
GPGPU-Sim PTX:   int dim = 1
GPGPU-Sim PTX:   int norm = 0
GPGPU-Sim PTX:   int ext = 0
GPGPU-Sim PTX:   Execution warning: Not finished implementing "void __cudaRegisterTexture(void**, const textureReference*, const void**, const char*, int, int, int)"
GPGPU-Sim PTX: __cudaRegisterFunction _Z14drotm_tex_main17cublasDrotmParams : 0x7f33c7d81c50
GPGPU-Sim PTX: __cudaRegisterFunction _Z14drotm_gld_main17cublasDrotmParams : 0x7f33c7d81cb0
GPGPU-Sim PTX: in __cudaRegisterTexture:
GPGPU-Sim PTX:   int dim = 1
GPGPU-Sim PTX:   int norm = 0
GPGPU-Sim PTX:   int ext = 0
GPGPU-Sim PTX:   Execution warning: Not finished implementing "void __cudaRegisterTexture(void**, const textureReference*, const void**, const char*, int, int, int)"
GPGPU-Sim PTX: in __cudaRegisterTexture:
GPGPU-Sim PTX:   int dim = 1
GPGPU-Sim PTX:   int norm = 0
GPGPU-Sim PTX:   int ext = 0
GPGPU-Sim PTX:   Execution warning: Not finished implementing "void __cudaRegisterTexture(void**, const textureReference*, const void**, const char*, int, int, int)"
GPGPU-Sim PTX: __cudaRegisterFunction _Z13drot_tex_main16cublasDrotParams : 0x7f33c7d81110
GPGPU-Sim PTX: __cudaRegisterFunction _Z13drot_gld_main16cublasDrotParams : 0x7f33c7d81170
GPGPU-Sim PTX: in __cudaRegisterTexture:
GPGPU-Sim PTX:   int dim = 1
GPGPU-Sim PTX:   int norm = 0
GPGPU-Sim PTX:   int ext = 0
GPGPU-Sim PTX:   Execution warning: Not finished implementing "void __cudaRegisterTexture(void**, const textureReference*, const void**, const char*, int, int, int)"
GPGPU-Sim PTX: in __cudaRegisterTexture:
GPGPU-Sim PTX:   int dim = 1
GPGPU-Sim PTX:   int norm = 0
GPGPU-Sim PTX:   int ext = 0
GPGPU-Sim PTX:   Execution warning: Not finished implementing "void __cudaRegisterTexture(void**, const textureReference*, const void**, const char*, int, int, int)"
GPGPU-Sim PTX: __cudaRegisterFunction _Z14dnrm2_tex_main17cublasDnrm2Params : 0x7f33c7d7fce0
GPGPU-Sim PTX: __cudaRegisterFunction _Z14dnrm2_gld_main17cublasDnrm2Params : 0x7f33c7d7fd40
GPGPU-Sim PTX: in __cudaRegisterTexture:
GPGPU-Sim PTX:   int dim = 1
GPGPU-Sim PTX:   int norm = 0
GPGPU-Sim PTX:   int ext = 0
GPGPU-Sim PTX:   Execution warning: Not finished implementing "void __cudaRegisterTexture(void**, const textureReference*, const void**, const char*, int, int, int)"
GPGPU-Sim PTX: __cudaRegisterSharedVar
GPGPU-Sim PTX: __cudaRegisterFunction _Z14zdotu_tex_main17cublasZdotuParams : 0x7f33c7d7f150
GPGPU-Sim PTX: __cudaRegisterFunction _Z14zdotu_gld_main17cublasZdotuParams : 0x7f33c7d7f1b0
GPGPU-Sim PTX: in __cudaRegisterTexture:
GPGPU-Sim PTX:   int dim = 1
GPGPU-Sim PTX:   int norm = 0
GPGPU-Sim PTX:   int ext = 0
GPGPU-Sim PTX:   Execution warning: Not finished implementing "void __cudaRegisterTexture(void**, const textureReference*, const void**, const char*, int, int, int)"
GPGPU-Sim PTX: in __cudaRegisterTexture:
GPGPU-Sim PTX:   int dim = 1
GPGPU-Sim PTX:   int norm = 0
GPGPU-Sim PTX:   int ext = 0
GPGPU-Sim PTX:   Execution warning: Not finished implementing "void __cudaRegisterTexture(void**, const textureReference*, const void**, const char*, int, int, int)"
GPGPU-Sim PTX: __cudaRegisterSharedVar
GPGPU-Sim PTX: __cudaRegisterFunction _Z13ddot_tex_main16cublasDdotParams : 0x7f33c7d7e620
GPGPU-Sim PTX: __cudaRegisterFunction _Z13ddot_gld_main16cublasDdotParams : 0x7f33c7d7e680
GPGPU-Sim PTX: in __cudaRegisterTexture:
GPGPU-Sim PTX:   int dim = 1
GPGPU-Sim PTX:   int norm = 0
GPGPU-Sim PTX:   int ext = 0
GPGPU-Sim PTX:   Execution warning: Not finished implementing "void __cudaRegisterTexture(void**, const textureReference*, const void**, const char*, int, int, int)"
GPGPU-Sim PTX: in __cudaRegisterTexture:
GPGPU-Sim PTX:   int dim = 1
GPGPU-Sim PTX:   int norm = 0
GPGPU-Sim PTX:   int ext = 0
GPGPU-Sim PTX:   Execution warning: Not finished implementing "void __cudaRegisterTexture(void**, const textureReference*, const void**, const char*, int, int, int)"
GPGPU-Sim PTX: __cudaRegisterSharedVar
GPGPU-Sim PTX: __cudaRegisterFunction _Z14dcopy_tex_main17cublasDcopyParams : 0x7f33c7d7de20
GPGPU-Sim PTX: __cudaRegisterFunction _Z14dcopy_gld_main17cublasDcopyParams : 0x7f33c7d7de80
GPGPU-Sim PTX: in __cudaRegisterTexture:
GPGPU-Sim PTX:   int dim = 1
GPGPU-Sim PTX:   int norm = 0
GPGPU-Sim PTX:   int ext = 0
GPGPU-Sim PTX:   Execution warning: Not finished implementing "void __cudaRegisterTexture(void**, const textureReference*, const void**, const char*, int, int, int)"
GPGPU-Sim PTX: __cudaRegisterFunction _Z14daxpy_tex_main17cublasDaxpyParams : 0x7f33c7d7d5b0
GPGPU-Sim PTX: __cudaRegisterFunction _Z14daxpy_gld_main17cublasDaxpyParams : 0x7f33c7d7d610
GPGPU-Sim PTX: in __cudaRegisterTexture:
GPGPU-Sim PTX:   int dim = 1
GPGPU-Sim PTX:   int norm = 0
GPGPU-Sim PTX:   int ext = 0
GPGPU-Sim PTX:   Execution warning: Not finished implementing "void __cudaRegisterTexture(void**, const textureReference*, const void**, const char*, int, int, int)"
GPGPU-Sim PTX: in __cudaRegisterTexture:
GPGPU-Sim PTX:   int dim = 1
GPGPU-Sim PTX:   int norm = 0
GPGPU-Sim PTX:   int ext = 0
GPGPU-Sim PTX:   Execution warning: Not finished implementing "void __cudaRegisterTexture(void**, const textureReference*, const void**, const char*, int, int, int)"
GPGPU-Sim PTX: __cudaRegisterFunction _Z14dasum_tex_main17cublasDasumParams : 0x7f33c7d7cc30
GPGPU-Sim PTX: __cudaRegisterFunction _Z14dasum_gld_main17cublasDasumParams : 0x7f33c7d7cc90
GPGPU-Sim PTX: in __cudaRegisterTexture:
GPGPU-Sim PTX:   int dim = 1
GPGPU-Sim PTX:   int norm = 0
GPGPU-Sim PTX:   int ext = 0
GPGPU-Sim PTX:   Execution warning: Not finished implementing "void __cudaRegisterTexture(void**, const textureReference*, const void**, const char*, int, int, int)"
GPGPU-Sim PTX: __cudaRegisterSharedVar
GPGPU-Sim PTX: __cudaRegisterFunction _Z16dtrsv_main_nt_lo17cublasDtrsvParams : 0x7f33c7d7c2d0
GPGPU-Sim PTX: __cudaRegisterFunction _Z16dtrsv_main_nt_up17cublasDtrsvParams : 0x7f33c7d7c330
GPGPU-Sim PTX: __cudaRegisterFunction _Z16dtrsv_main_tr_lo17cublasDtrsvParams : 0x7f33c7d7c390
GPGPU-Sim PTX: __cudaRegisterFunction _Z16dtrsv_main_tr_up17cublasDtrsvParams : 0x7f33c7d7c3f0
GPGPU-Sim PTX: __cudaRegisterSharedVar
GPGPU-Sim PTX: __cudaRegisterSharedVar
GPGPU-Sim PTX: __cudaRegisterFunction _Z12dsyr_main_lo16cublasDsyrParams : 0x7f33c7d7bc10
GPGPU-Sim PTX: __cudaRegisterFunction _Z12dsyr_main_up16cublasDsyrParams : 0x7f33c7d7bc70
GPGPU-Sim PTX: __cudaRegisterSharedVar
GPGPU-Sim PTX: __cudaRegisterSharedVar
GPGPU-Sim PTX: __cudaRegisterFunction _Z12dger_main_sw16cublasDgerParams : 0x7f33c7d7b580
GPGPU-Sim PTX: __cudaRegisterFunction _Z12dger_main_hw16cublasDgerParams : 0x7f33c7d7b5e0
GPGPU-Sim PTX: __cudaRegisterSharedVar
GPGPU-Sim PTX: __cudaRegisterSharedVar
GPGPU-Sim PTX: __cudaRegisterFunction _Z11dgemvn_main17cublasDgemvParams : 0x7f33c7d7ae10
GPGPU-Sim PTX: __cudaRegisterFunction _Z11dgemvt_main17cublasDgemvParams : 0x7f33c7d7ae70
GPGPU-Sim PTX: __cudaRegisterSharedVar
GPGPU-Sim PTX: __cudaRegisterSharedVar
GPGPU-Sim PTX: __cudaRegisterFunction _Z28dsyrk_lo_nt_main_hw_fulltile17cublasDsyrkParams : 0x7f33c7d796f0
GPGPU-Sim PTX: __cudaRegisterFunction _Z28dsyrk_up_nt_main_hw_fulltile17cublasDsyrkParams : 0x7f33c7d79750
GPGPU-Sim PTX: __cudaRegisterFunction _Z28dsyrk_lo_tr_main_hw_fulltile17cublasDsyrkParams : 0x7f33c7d797b0
GPGPU-Sim PTX: __cudaRegisterFunction _Z28dsyrk_up_tr_main_hw_fulltile17cublasDsyrkParams : 0x7f33c7d79810
GPGPU-Sim PTX: __cudaRegisterFunction _Z28dsyrk_lo_nt_main_sw_fulltile17cublasDsyrkParams : 0x7f33c7d79870
GPGPU-Sim PTX: __cudaRegisterFunction _Z28dsyrk_up_nt_main_sw_fulltile17cublasDsyrkParams : 0x7f33c7d798d0
GPGPU-Sim PTX: __cudaRegisterFunction _Z28dsyrk_lo_tr_main_sw_fulltile17cublasDsyrkParams : 0x7f33c7d79930
GPGPU-Sim PTX: __cudaRegisterFunction _Z28dsyrk_up_tr_main_sw_fulltile17cublasDsyrkParams : 0x7f33c7d79990
GPGPU-Sim PTX: __cudaRegisterFunction _Z19dsyrk_lo_nt_main_hw17cublasDsyrkParams : 0x7f33c7d799f0
GPGPU-Sim PTX: __cudaRegisterFunction _Z19dsyrk_up_nt_main_hw17cublasDsyrkParams : 0x7f33c7d79a50
GPGPU-Sim PTX: __cudaRegisterFunction _Z19dsyrk_lo_tr_main_hw17cublasDsyrkParams : 0x7f33c7d79ab0
GPGPU-Sim PTX: __cudaRegisterFunction _Z19dsyrk_up_tr_main_hw17cublasDsyrkParams : 0x7f33c7d79b10
GPGPU-Sim PTX: __cudaRegisterFunction _Z19dsyrk_lo_nt_main_sw17cublasDsyrkParams : 0x7f33c7d79b70
GPGPU-Sim PTX: __cudaRegisterFunction _Z19dsyrk_up_nt_main_sw17cublasDsyrkParams : 0x7f33c7d79bd0
GPGPU-Sim PTX: __cudaRegisterFunction _Z19dsyrk_lo_tr_main_sw17cublasDsyrkParams : 0x7f33c7d79c30
GPGPU-Sim PTX: __cudaRegisterFunction _Z19dsyrk_up_tr_main_sw17cublasDsyrkParams : 0x7f33c7d79c90
GPGPU-Sim PTX: __cudaRegisterSharedVar
GPGPU-Sim PTX: __cudaRegisterSharedVar
GPGPU-Sim PTX: __cudaRegisterFunction _Z30dsymm_main_sw_up_left_fulltile17cublasDsymmParams : 0x7f33c7d78510
GPGPU-Sim PTX: __cudaRegisterFunction _Z31dsymm_main_sw_up_right_fulltile17cublasDsymmParams : 0x7f33c7d78570
GPGPU-Sim PTX: __cudaRegisterFunction _Z30dsymm_main_sw_lo_left_fulltile17cublasDsymmParams : 0x7f33c7d785d0
GPGPU-Sim PTX: __cudaRegisterFunction _Z31dsymm_main_sw_lo_right_fulltile17cublasDsymmParams : 0x7f33c7d78630
GPGPU-Sim PTX: __cudaRegisterFunction _Z30dsymm_main_hw_up_left_fulltile17cublasDsymmParams : 0x7f33c7d78690
GPGPU-Sim PTX: __cudaRegisterFunction _Z31dsymm_main_hw_up_right_fulltile17cublasDsymmParams : 0x7f33c7d786f0
GPGPU-Sim PTX: __cudaRegisterFunction _Z30dsymm_main_hw_lo_left_fulltile17cublasDsymmParams : 0x7f33c7d78750
GPGPU-Sim PTX: __cudaRegisterFunction _Z31dsymm_main_hw_lo_right_fulltile17cublasDsymmParams : 0x7f33c7d787b0
GPGPU-Sim PTX: __cudaRegisterFunction _Z21dsymm_main_sw_up_left17cublasDsymmParams : 0x7f33c7d78810
GPGPU-Sim PTX: __cudaRegisterFunction _Z22dsymm_main_sw_up_right17cublasDsymmParams : 0x7f33c7d78870
GPGPU-Sim PTX: __cudaRegisterFunction _Z21dsymm_main_sw_lo_left17cublasDsymmParams : 0x7f33c7d788d0
GPGPU-Sim PTX: __cudaRegisterFunction _Z22dsymm_main_sw_lo_right17cublasDsymmParams : 0x7f33c7d78930
GPGPU-Sim PTX: __cudaRegisterFunction _Z21dsymm_main_hw_up_left17cublasDsymmParams : 0x7f33c7d78990
GPGPU-Sim PTX: __cudaRegisterFunction _Z22dsymm_main_hw_up_right17cublasDsymmParams : 0x7f33c7d789f0
GPGPU-Sim PTX: __cudaRegisterFunction _Z21dsymm_main_hw_lo_left17cublasDsymmParams : 0x7f33c7d78a50
GPGPU-Sim PTX: __cudaRegisterFunction _Z22dsymm_main_hw_lo_right17cublasDsymmParams : 0x7f33c7d78ab0
GPGPU-Sim PTX: __cudaRegisterSharedVar
GPGPU-Sim PTX: __cudaRegisterSharedVar
GPGPU-Sim PTX: __cudaRegisterFunction _Z35dtrmm_r_lo_tr_main_unit_fulltile_hw17cublasDtrmmParams : 0x7f33c7d760e0
GPGPU-Sim PTX: __cudaRegisterFunction _Z35dtrmm_r_up_tr_main_unit_fulltile_hw17cublasDtrmmParams : 0x7f33c7d76140
GPGPU-Sim PTX: __cudaRegisterFunction _Z35dtrmm_r_lo_nt_main_unit_fulltile_hw17cublasDtrmmParams : 0x7f33c7d761a0
GPGPU-Sim PTX: __cudaRegisterFunction _Z35dtrmm_r_up_nt_main_unit_fulltile_hw17cublasDtrmmParams : 0x7f33c7d76200
GPGPU-Sim PTX: __cudaRegisterFunction _Z35dtrmm_l_lo_tr_main_unit_fulltile_hw17cublasDtrmmParams : 0x7f33c7d76260
GPGPU-Sim PTX: __cudaRegisterFunction _Z35dtrmm_l_up_tr_main_unit_fulltile_hw17cublasDtrmmParams : 0x7f33c7d762c0
GPGPU-Sim PTX: __cudaRegisterFunction _Z35dtrmm_l_lo_nt_main_unit_fulltile_hw17cublasDtrmmParams : 0x7f33c7d76320
GPGPU-Sim PTX: __cudaRegisterFunction _Z35dtrmm_l_up_nt_main_unit_fulltile_hw17cublasDtrmmParams : 0x7f33c7d76380
GPGPU-Sim PTX: __cudaRegisterFunction _Z30dtrmm_r_lo_tr_main_fulltile_hw17cublasDtrmmParams : 0x7f33c7d763e0
GPGPU-Sim PTX: __cudaRegisterFunction _Z30dtrmm_r_up_tr_main_fulltile_hw17cublasDtrmmParams : 0x7f33c7d76440
GPGPU-Sim PTX: __cudaRegisterFunction _Z30dtrmm_r_lo_nt_main_fulltile_hw17cublasDtrmmParams : 0x7f33c7d764a0
GPGPU-Sim PTX: __cudaRegisterFunction _Z30dtrmm_r_up_nt_main_fulltile_hw17cublasDtrmmParams : 0x7f33c7d76500
GPGPU-Sim PTX: __cudaRegisterFunction _Z30dtrmm_l_lo_tr_main_fulltile_hw17cublasDtrmmParams : 0x7f33c7d76560
GPGPU-Sim PTX: __cudaRegisterFunction _Z30dtrmm_l_up_tr_main_fulltile_hw17cublasDtrmmParams : 0x7f33c7d765c0
GPGPU-Sim PTX: __cudaRegisterFunction _Z30dtrmm_l_lo_nt_main_fulltile_hw17cublasDtrmmParams : 0x7f33c7d76620
GPGPU-Sim PTX: __cudaRegisterFunction _Z30dtrmm_l_up_nt_main_fulltile_hw17cublasDtrmmParams : 0x7f33c7d76680
GPGPU-Sim PTX: __cudaRegisterFunction _Z26dtrmm_r_lo_tr_main_unit_hw17cublasDtrmmParams : 0x7f33c7d766e0
GPGPU-Sim PTX: __cudaRegisterFunction _Z26dtrmm_r_up_tr_main_unit_hw17cublasDtrmmParams : 0x7f33c7d76740
GPGPU-Sim PTX: __cudaRegisterFunction _Z26dtrmm_r_lo_nt_main_unit_hw17cublasDtrmmParams : 0x7f33c7d767a0
GPGPU-Sim PTX: __cudaRegisterFunction _Z26dtrmm_r_up_nt_main_unit_hw17cublasDtrmmParams : 0x7f33c7d76800
GPGPU-Sim PTX: __cudaRegisterFunction _Z26dtrmm_l_lo_tr_main_unit_hw17cublasDtrmmParams : 0x7f33c7d76860
GPGPU-Sim PTX: __cudaRegisterFunction _Z26dtrmm_l_up_tr_main_unit_hw17cublasDtrmmParams : 0x7f33c7d768c0
GPGPU-Sim PTX: __cudaRegisterFunction _Z26dtrmm_l_lo_nt_main_unit_hw17cublasDtrmmParams : 0x7f33c7d76920
GPGPU-Sim PTX: __cudaRegisterFunction _Z26dtrmm_l_up_nt_main_unit_hw17cublasDtrmmParams : 0x7f33c7d76980
GPGPU-Sim PTX: __cudaRegisterFunction _Z21dtrmm_r_lo_tr_main_hw17cublasDtrmmParams : 0x7f33c7d769e0
GPGPU-Sim PTX: __cudaRegisterFunction _Z21dtrmm_r_up_tr_main_hw17cublasDtrmmParams : 0x7f33c7d76a40
GPGPU-Sim PTX: __cudaRegisterFunction _Z21dtrmm_r_lo_nt_main_hw17cublasDtrmmParams : 0x7f33c7d76aa0
GPGPU-Sim PTX: __cudaRegisterFunction _Z21dtrmm_r_up_nt_main_hw17cublasDtrmmParams : 0x7f33c7d76b00
GPGPU-Sim PTX: __cudaRegisterFunction _Z21dtrmm_l_lo_tr_main_hw17cublasDtrmmParams : 0x7f33c7d76b60
GPGPU-Sim PTX: __cudaRegisterFunction _Z21dtrmm_l_up_tr_main_hw17cublasDtrmmParams : 0x7f33c7d76bc0
GPGPU-Sim PTX: __cudaRegisterFunction _Z21dtrmm_l_lo_nt_main_hw17cublasDtrmmParams : 0x7f33c7d76c20
GPGPU-Sim PTX: __cudaRegisterFunction _Z21dtrmm_l_up_nt_main_hw17cublasDtrmmParams : 0x7f33c7d76c80
GPGPU-Sim PTX: __cudaRegisterFunction _Z35dtrmm_r_lo_tr_main_unit_fulltile_sw17cublasDtrmmParams : 0x7f33c7d76ce0
GPGPU-Sim PTX: __cudaRegisterFunction _Z35dtrmm_r_up_tr_main_unit_fulltile_sw17cublasDtrmmParams : 0x7f33c7d76d40
GPGPU-Sim PTX: __cudaRegisterFunction _Z35dtrmm_r_lo_nt_main_unit_fulltile_sw17cublasDtrmmParams : 0x7f33c7d76da0
GPGPU-Sim PTX: __cudaRegisterFunction _Z35dtrmm_r_up_nt_main_unit_fulltile_sw17cublasDtrmmParams : 0x7f33c7d76e00
GPGPU-Sim PTX: __cudaRegisterFunction _Z35dtrmm_l_lo_tr_main_unit_fulltile_sw17cublasDtrmmParams : 0x7f33c7d76e60
GPGPU-Sim PTX: __cudaRegisterFunction _Z35dtrmm_l_up_tr_main_unit_fulltile_sw17cublasDtrmmParams : 0x7f33c7d76ec0
GPGPU-Sim PTX: __cudaRegisterFunction _Z35dtrmm_l_lo_nt_main_unit_fulltile_sw17cublasDtrmmParams : 0x7f33c7d76f20
GPGPU-Sim PTX: __cudaRegisterFunction _Z35dtrmm_l_up_nt_main_unit_fulltile_sw17cublasDtrmmParams : 0x7f33c7d76f80
GPGPU-Sim PTX: __cudaRegisterFunction _Z30dtrmm_r_lo_tr_main_fulltile_sw17cublasDtrmmParams : 0x7f33c7d76fe0
GPGPU-Sim PTX: __cudaRegisterFunction _Z30dtrmm_r_up_tr_main_fulltile_sw17cublasDtrmmParams : 0x7f33c7d77040
GPGPU-Sim PTX: __cudaRegisterFunction _Z30dtrmm_r_lo_nt_main_fulltile_sw17cublasDtrmmParams : 0x7f33c7d770a0
GPGPU-Sim PTX: __cudaRegisterFunction _Z30dtrmm_r_up_nt_main_fulltile_sw17cublasDtrmmParams : 0x7f33c7d77100
GPGPU-Sim PTX: __cudaRegisterFunction _Z30dtrmm_l_lo_tr_main_fulltile_sw17cublasDtrmmParams : 0x7f33c7d77160
GPGPU-Sim PTX: __cudaRegisterFunction _Z30dtrmm_l_up_tr_main_fulltile_sw17cublasDtrmmParams : 0x7f33c7d771c0
GPGPU-Sim PTX: __cudaRegisterFunction _Z30dtrmm_l_lo_nt_main_fulltile_sw17cublasDtrmmParams : 0x7f33c7d77220
GPGPU-Sim PTX: __cudaRegisterFunction _Z30dtrmm_l_up_nt_main_fulltile_sw17cublasDtrmmParams : 0x7f33c7d77280
GPGPU-Sim PTX: __cudaRegisterFunction _Z26dtrmm_r_lo_tr_main_unit_sw17cublasDtrmmParams : 0x7f33c7d772e0
GPGPU-Sim PTX: __cudaRegisterFunction _Z26dtrmm_r_up_tr_main_unit_sw17cublasDtrmmParams : 0x7f33c7d77340
GPGPU-Sim PTX: __cudaRegisterFunction _Z26dtrmm_r_lo_nt_main_unit_sw17cublasDtrmmParams : 0x7f33c7d773a0
GPGPU-Sim PTX: __cudaRegisterFunction _Z26dtrmm_r_up_nt_main_unit_sw17cublasDtrmmParams : 0x7f33c7d77400
GPGPU-Sim PTX: __cudaRegisterFunction _Z26dtrmm_l_lo_tr_main_unit_sw17cublasDtrmmParams : 0x7f33c7d77460
GPGPU-Sim PTX: __cudaRegisterFunction _Z26dtrmm_l_up_tr_main_unit_sw17cublasDtrmmParams : 0x7f33c7d774c0
GPGPU-Sim PTX: __cudaRegisterFunction _Z26dtrmm_l_lo_nt_main_unit_sw17cublasDtrmmParams : 0x7f33c7d77520
GPGPU-Sim PTX: __cudaRegisterFunction _Z26dtrmm_l_up_nt_main_unit_sw17cublasDtrmmParams : 0x7f33c7d77580
GPGPU-Sim PTX: __cudaRegisterFunction _Z21dtrmm_r_lo_tr_main_sw17cublasDtrmmParams : 0x7f33c7d775e0
GPGPU-Sim PTX: __cudaRegisterFunction _Z21dtrmm_r_up_tr_main_sw17cublasDtrmmParams : 0x7f33c7d77640
GPGPU-Sim PTX: __cudaRegisterFunction _Z21dtrmm_r_lo_nt_main_sw17cublasDtrmmParams : 0x7f33c7d776a0
GPGPU-Sim PTX: __cudaRegisterFunction _Z21dtrmm_r_up_nt_main_sw17cublasDtrmmParams : 0x7f33c7d77700
GPGPU-Sim PTX: __cudaRegisterFunction _Z21dtrmm_l_lo_tr_main_sw17cublasDtrmmParams : 0x7f33c7d77760
GPGPU-Sim PTX: __cudaRegisterFunction _Z21dtrmm_l_up_tr_main_sw17cublasDtrmmParams : 0x7f33c7d777c0
GPGPU-Sim PTX: __cudaRegisterFunction _Z21dtrmm_l_lo_nt_main_sw17cublasDtrmmParams : 0x7f33c7d77820
GPGPU-Sim PTX: __cudaRegisterFunction _Z21dtrmm_l_up_nt_main_sw17cublasDtrmmParams : 0x7f33c7d77880
GPGPU-Sim PTX: __cudaRegisterSharedVar
GPGPU-Sim PTX: __cudaRegisterSharedVar
GPGPU-Sim PTX: __cudaRegisterFunction _Z33dtrsm_r_up_tr_main_fulltile_hw_nu17cublasDtrsmParams : 0x7f33c7d72c40
GPGPU-Sim PTX: __cudaRegisterFunction _Z33dtrsm_r_up_nt_main_fulltile_hw_nu17cublasDtrsmParams : 0x7f33c7d72ca0
GPGPU-Sim PTX: __cudaRegisterFunction _Z33dtrsm_r_lo_tr_main_fulltile_hw_nu17cublasDtrsmParams : 0x7f33c7d72d00
GPGPU-Sim PTX: __cudaRegisterFunction _Z33dtrsm_r_lo_nt_main_fulltile_hw_nu17cublasDtrsmParams : 0x7f33c7d72d60
GPGPU-Sim PTX: __cudaRegisterFunction _Z24dtrsm_r_up_tr_main_hw_nu17cublasDtrsmParams : 0x7f33c7d72dc0
GPGPU-Sim PTX: __cudaRegisterFunction _Z24dtrsm_r_up_nt_main_hw_nu17cublasDtrsmParams : 0x7f33c7d72e20
GPGPU-Sim PTX: __cudaRegisterFunction _Z24dtrsm_r_lo_tr_main_hw_nu17cublasDtrsmParams : 0x7f33c7d72e80
GPGPU-Sim PTX: __cudaRegisterFunction _Z24dtrsm_r_lo_nt_main_hw_nu17cublasDtrsmParams : 0x7f33c7d72ee0
GPGPU-Sim PTX: __cudaRegisterFunction _Z33dtrsm_r_up_tr_main_fulltile_sw_nu17cublasDtrsmParams : 0x7f33c7d72f40
GPGPU-Sim PTX: __cudaRegisterFunction _Z33dtrsm_r_up_nt_main_fulltile_sw_nu17cublasDtrsmParams : 0x7f33c7d72fa0
GPGPU-Sim PTX: __cudaRegisterFunction _Z33dtrsm_r_lo_tr_main_fulltile_sw_nu17cublasDtrsmParams : 0x7f33c7d73000
GPGPU-Sim PTX: __cudaRegisterFunction _Z33dtrsm_r_lo_nt_main_fulltile_sw_nu17cublasDtrsmParams : 0x7f33c7d73060
GPGPU-Sim PTX: __cudaRegisterFunction _Z24dtrsm_r_up_tr_main_sw_nu17cublasDtrsmParams : 0x7f33c7d730c0
GPGPU-Sim PTX: __cudaRegisterFunction _Z24dtrsm_r_up_nt_main_sw_nu17cublasDtrsmParams : 0x7f33c7d73120
GPGPU-Sim PTX: __cudaRegisterFunction _Z24dtrsm_r_lo_tr_main_sw_nu17cublasDtrsmParams : 0x7f33c7d73180
GPGPU-Sim PTX: __cudaRegisterFunction _Z24dtrsm_r_lo_nt_main_sw_nu17cublasDtrsmParams : 0x7f33c7d731e0
GPGPU-Sim PTX: __cudaRegisterFunction _Z30dtrsm_r_up_tr_main_fulltile_hw17cublasDtrsmParams : 0x7f33c7d73240
GPGPU-Sim PTX: __cudaRegisterFunction _Z30dtrsm_r_up_nt_main_fulltile_hw17cublasDtrsmParams : 0x7f33c7d732a0
GPGPU-Sim PTX: __cudaRegisterFunction _Z30dtrsm_r_lo_tr_main_fulltile_hw17cublasDtrsmParams : 0x7f33c7d73300
GPGPU-Sim PTX: __cudaRegisterFunction _Z30dtrsm_r_lo_nt_main_fulltile_hw17cublasDtrsmParams : 0x7f33c7d73360
GPGPU-Sim PTX: __cudaRegisterFunction _Z21dtrsm_r_up_tr_main_hw17cublasDtrsmParams : 0x7f33c7d733c0
GPGPU-Sim PTX: __cudaRegisterFunction _Z21dtrsm_r_up_nt_main_hw17cublasDtrsmParams : 0x7f33c7d73420
GPGPU-Sim PTX: __cudaRegisterFunction _Z21dtrsm_r_lo_tr_main_hw17cublasDtrsmParams : 0x7f33c7d73480
GPGPU-Sim PTX: __cudaRegisterFunction _Z21dtrsm_r_lo_nt_main_hw17cublasDtrsmParams : 0x7f33c7d734e0
GPGPU-Sim PTX: __cudaRegisterFunction _Z30dtrsm_r_up_tr_main_fulltile_sw17cublasDtrsmParams : 0x7f33c7d73540
GPGPU-Sim PTX: __cudaRegisterFunction _Z30dtrsm_r_up_nt_main_fulltile_sw17cublasDtrsmParams : 0x7f33c7d735a0
GPGPU-Sim PTX: __cudaRegisterFunction _Z30dtrsm_r_lo_tr_main_fulltile_sw17cublasDtrsmParams : 0x7f33c7d73600
GPGPU-Sim PTX: __cudaRegisterFunction _Z30dtrsm_r_lo_nt_main_fulltile_sw17cublasDtrsmParams : 0x7f33c7d73660
GPGPU-Sim PTX: __cudaRegisterFunction _Z21dtrsm_r_up_tr_main_sw17cublasDtrsmParams : 0x7f33c7d736c0
GPGPU-Sim PTX: __cudaRegisterFunction _Z21dtrsm_r_up_nt_main_sw17cublasDtrsmParams : 0x7f33c7d73720
GPGPU-Sim PTX: __cudaRegisterFunction _Z21dtrsm_r_lo_tr_main_sw17cublasDtrsmParams : 0x7f33c7d73780
GPGPU-Sim PTX: __cudaRegisterFunction _Z21dtrsm_r_lo_nt_main_sw17cublasDtrsmParams : 0x7f33c7d737e0
GPGPU-Sim PTX: __cudaRegisterFunction _Z33dtrsm_l_up_tr_main_fulltile_sw_nu17cublasDtrsmParams : 0x7f33c7d73840
GPGPU-Sim PTX: __cudaRegisterFunction _Z33dtrsm_l_up_nt_main_fulltile_sw_nu17cublasDtrsmParams : 0x7f33c7d738a0
GPGPU-Sim PTX: __cudaRegisterFunction _Z33dtrsm_l_lo_tr_main_fulltile_sw_nu17cublasDtrsmParams : 0x7f33c7d73900
GPGPU-Sim PTX: __cudaRegisterFunction _Z33dtrsm_l_lo_nt_main_fulltile_sw_nu17cublasDtrsmParams : 0x7f33c7d73960
GPGPU-Sim PTX: __cudaRegisterFunction _Z24dtrsm_l_up_tr_main_sw_nu17cublasDtrsmParams : 0x7f33c7d739c0
GPGPU-Sim PTX: __cudaRegisterFunction _Z24dtrsm_l_up_nt_main_sw_nu17cublasDtrsmParams : 0x7f33c7d73a20
GPGPU-Sim PTX: __cudaRegisterFunction _Z24dtrsm_l_lo_tr_main_sw_nu17cublasDtrsmParams : 0x7f33c7d73a80
GPGPU-Sim PTX: __cudaRegisterFunction _Z24dtrsm_l_lo_nt_main_sw_nu17cublasDtrsmParams : 0x7f33c7d73ae0
GPGPU-Sim PTX: __cudaRegisterFunction _Z33dtrsm_l_up_tr_main_fulltile_hw_nu17cublasDtrsmParams : 0x7f33c7d73b40
GPGPU-Sim PTX: __cudaRegisterFunction _Z33dtrsm_l_up_nt_main_fulltile_hw_nu17cublasDtrsmParams : 0x7f33c7d73ba0
GPGPU-Sim PTX: __cudaRegisterFunction _Z33dtrsm_l_lo_tr_main_fulltile_hw_nu17cublasDtrsmParams : 0x7f33c7d73c00
GPGPU-Sim PTX: __cudaRegisterFunction _Z33dtrsm_l_lo_nt_main_fulltile_hw_nu17cublasDtrsmParams : 0x7f33c7d73c60
GPGPU-Sim PTX: __cudaRegisterFunction _Z24dtrsm_l_up_tr_main_hw_nu17cublasDtrsmParams : 0x7f33c7d73cc0
GPGPU-Sim PTX: __cudaRegisterFunction _Z24dtrsm_l_up_nt_main_hw_nu17cublasDtrsmParams : 0x7f33c7d73d20
GPGPU-Sim PTX: __cudaRegisterFunction _Z24dtrsm_l_lo_tr_main_hw_nu17cublasDtrsmParams : 0x7f33c7d73d80
GPGPU-Sim PTX: __cudaRegisterFunction _Z24dtrsm_l_lo_nt_main_hw_nu17cublasDtrsmParams : 0x7f33c7d73de0
GPGPU-Sim PTX: __cudaRegisterFunction _Z30dtrsm_l_up_tr_main_fulltile_sw17cublasDtrsmParams : 0x7f33c7d73e40
GPGPU-Sim PTX: __cudaRegisterFunction _Z30dtrsm_l_up_nt_main_fulltile_sw17cublasDtrsmParams : 0x7f33c7d73ea0
GPGPU-Sim PTX: __cudaRegisterFunction _Z30dtrsm_l_lo_tr_main_fulltile_sw17cublasDtrsmParams : 0x7f33c7d73f00
GPGPU-Sim PTX: __cudaRegisterFunction _Z30dtrsm_l_lo_nt_main_fulltile_sw17cublasDtrsmParams : 0x7f33c7d73f60
GPGPU-Sim PTX: __cudaRegisterFunction _Z21dtrsm_l_up_tr_main_sw17cublasDtrsmParams : 0x7f33c7d73fc0
GPGPU-Sim PTX: __cudaRegisterFunction _Z21dtrsm_l_up_nt_main_sw17cublasDtrsmParams : 0x7f33c7d74020
GPGPU-Sim PTX: __cudaRegisterFunction _Z21dtrsm_l_lo_tr_main_sw17cublasDtrsmParams : 0x7f33c7d74080
GPGPU-Sim PTX: __cudaRegisterFunction _Z21dtrsm_l_lo_nt_main_sw17cublasDtrsmParams : 0x7f33c7d740e0
GPGPU-Sim PTX: __cudaRegisterFunction _Z30dtrsm_l_up_tr_main_fulltile_hw17cublasDtrsmParams : 0x7f33c7d74140
GPGPU-Sim PTX: __cudaRegisterFunction _Z30dtrsm_l_up_nt_main_fulltile_hw17cublasDtrsmParams : 0x7f33c7d741a0
GPGPU-Sim PTX: __cudaRegisterFunction _Z30dtrsm_l_lo_tr_main_fulltile_hw17cublasDtrsmParams : 0x7f33c7d74200
GPGPU-Sim PTX: __cudaRegisterFunction _Z30dtrsm_l_lo_nt_main_fulltile_hw17cublasDtrsmParams : 0x7f33c7d74260
GPGPU-Sim PTX: __cudaRegisterFunction _Z21dtrsm_l_up_tr_main_hw17cublasDtrsmParams : 0x7f33c7d742c0
GPGPU-Sim PTX: __cudaRegisterFunction _Z21dtrsm_l_up_nt_main_hw17cublasDtrsmParams : 0x7f33c7d74320
GPGPU-Sim PTX: __cudaRegisterFunction _Z21dtrsm_l_lo_tr_main_hw17cublasDtrsmParams : 0x7f33c7d74380
GPGPU-Sim PTX: __cudaRegisterFunction _Z21dtrsm_l_lo_nt_main_hw17cublasDtrsmParams : 0x7f33c7d743e0
GPGPU-Sim PTX: __cudaRegisterSharedVar
GPGPU-Sim PTX: __cudaRegisterSharedVar
GPGPU-Sim PTX: __cudaRegisterFunction _Z20fml_dgemmTT_16_64_16PKdiS0_iPdijdd : 0x7f33c7d716c0
GPGPU-Sim PTX: __cudaRegisterFunction _Z8dgemmNT2PKdiS0_iPdiidd : 0x7f33c7d70e10
GPGPU-Sim PTX: __cudaRegisterFunction _Z7dgemmNNPKdiS0_iPdiidd : 0x7f33c7d70f80
GPGPU-Sim PTX: __cudaRegisterFunction _Z7dgemmNTPKdiS0_iPdiidd : 0x7f33c7d710f0
GPGPU-Sim PTX: __cudaRegisterFunction _Z28dgemm_main_hw_ta_tb_fulltile17cublasDgemmParams : 0x7f33c7d6fd80
GPGPU-Sim PTX: __cudaRegisterFunction _Z28dgemm_main_hw_ta_nb_fulltile17cublasDgemmParams : 0x7f33c7d6fde0
GPGPU-Sim PTX: __cudaRegisterFunction _Z28dgemm_main_hw_na_tb_fulltile17cublasDgemmParams : 0x7f33c7d6fe40
GPGPU-Sim PTX: __cudaRegisterFunction _Z28dgemm_main_hw_na_nb_fulltile17cublasDgemmParams : 0x7f33c7d6fea0
GPGPU-Sim PTX: __cudaRegisterFunction _Z28dgemm_main_sw_ta_tb_fulltile17cublasDgemmParams : 0x7f33c7d6ff00
GPGPU-Sim PTX: __cudaRegisterFunction _Z28dgemm_main_sw_ta_nb_fulltile17cublasDgemmParams : 0x7f33c7d6ff60
GPGPU-Sim PTX: __cudaRegisterFunction _Z28dgemm_main_sw_na_tb_fulltile17cublasDgemmParams : 0x7f33c7d6ffc0
GPGPU-Sim PTX: __cudaRegisterFunction _Z28dgemm_main_sw_na_nb_fulltile17cublasDgemmParams : 0x7f33c7d70020
GPGPU-Sim PTX: __cudaRegisterFunction _Z19dgemm_main_hw_ta_tb17cublasDgemmParams : 0x7f33c7d70080
GPGPU-Sim PTX: __cudaRegisterFunction _Z19dgemm_main_hw_ta_nb17cublasDgemmParams : 0x7f33c7d700e0
GPGPU-Sim PTX: __cudaRegisterFunction _Z19dgemm_main_hw_na_tb17cublasDgemmParams : 0x7f33c7d70140
GPGPU-Sim PTX: __cudaRegisterFunction _Z19dgemm_main_hw_na_nb17cublasDgemmParams : 0x7f33c7d701a0
GPGPU-Sim PTX: __cudaRegisterFunction _Z19dgemm_main_sw_ta_tb17cublasDgemmParams : 0x7f33c7d70200
GPGPU-Sim PTX: __cudaRegisterFunction _Z19dgemm_main_sw_ta_nb17cublasDgemmParams : 0x7f33c7d70260
GPGPU-Sim PTX: __cudaRegisterFunction _Z19dgemm_main_sw_na_tb17cublasDgemmParams : 0x7f33c7d702c0
GPGPU-Sim PTX: __cudaRegisterFunction _Z19dgemm_main_sw_na_nb17cublasDgemmParams : 0x7f33c7d70320
GPGPU-Sim PTX: __cudaRegisterSharedVar
GPGPU-Sim PTX: __cudaRegisterSharedVar
GPGPU-Sim PTX: __cudaRegisterSharedVar
GPGPU-Sim PTX: __cudaRegisterSharedVar
GPGPU-Sim PTX: __cudaRegisterFunction _Z28zgemm_9_main_hw_tex_fulltile17cublasZgemmParams : 0x7f33c7d6d320
GPGPU-Sim PTX: __cudaRegisterFunction _Z28zgemm_8_main_hw_tex_fulltile17cublasZgemmParams : 0x7f33c7d6d380
GPGPU-Sim PTX: __cudaRegisterFunction _Z28zgemm_7_main_hw_tex_fulltile17cublasZgemmParams : 0x7f33c7d6d3e0
GPGPU-Sim PTX: __cudaRegisterFunction _Z28zgemm_6_main_hw_tex_fulltile17cublasZgemmParams : 0x7f33c7d6d440
GPGPU-Sim PTX: __cudaRegisterFunction _Z28zgemm_5_main_hw_tex_fulltile17cublasZgemmParams : 0x7f33c7d6d4a0
GPGPU-Sim PTX: __cudaRegisterFunction _Z28zgemm_4_main_hw_tex_fulltile17cublasZgemmParams : 0x7f33c7d6d500
GPGPU-Sim PTX: __cudaRegisterFunction _Z28zgemm_3_main_hw_tex_fulltile17cublasZgemmParams : 0x7f33c7d6d560
GPGPU-Sim PTX: __cudaRegisterFunction _Z28zgemm_2_main_hw_tex_fulltile17cublasZgemmParams : 0x7f33c7d6d5c0
GPGPU-Sim PTX: __cudaRegisterFunction _Z28zgemm_1_main_hw_tex_fulltile17cublasZgemmParams : 0x7f33c7d6d620
GPGPU-Sim PTX: __cudaRegisterFunction _Z28zgemm_9_main_sw_tex_fulltile17cublasZgemmParams : 0x7f33c7d6d680
GPGPU-Sim PTX: __cudaRegisterFunction _Z28zgemm_8_main_sw_tex_fulltile17cublasZgemmParams : 0x7f33c7d6d6e0
GPGPU-Sim PTX: __cudaRegisterFunction _Z28zgemm_7_main_sw_tex_fulltile17cublasZgemmParams : 0x7f33c7d6d740
GPGPU-Sim PTX: __cudaRegisterFunction _Z28zgemm_6_main_sw_tex_fulltile17cublasZgemmParams : 0x7f33c7d6d7a0
GPGPU-Sim PTX: __cudaRegisterFunction _Z28zgemm_5_main_sw_tex_fulltile17cublasZgemmParams : 0x7f33c7d6d800
GPGPU-Sim PTX: __cudaRegisterFunction _Z28zgemm_4_main_sw_tex_fulltile17cublasZgemmParams : 0x7f33c7d6d860
GPGPU-Sim PTX: __cudaRegisterFunction _Z28zgemm_3_main_sw_tex_fulltile17cublasZgemmParams : 0x7f33c7d6d8c0
GPGPU-Sim PTX: __cudaRegisterFunction _Z28zgemm_2_main_sw_tex_fulltile17cublasZgemmParams : 0x7f33c7d6d920
GPGPU-Sim PTX: __cudaRegisterFunction _Z28zgemm_1_main_sw_tex_fulltile17cublasZgemmParams : 0x7f33c7d6d980
GPGPU-Sim PTX: __cudaRegisterFunction _Z19zgemm_9_main_hw_tex17cublasZgemmParams : 0x7f33c7d6d9e0
GPGPU-Sim PTX: __cudaRegisterFunction _Z19zgemm_8_main_hw_tex17cublasZgemmParams : 0x7f33c7d6da40
GPGPU-Sim PTX: __cudaRegisterFunction _Z19zgemm_7_main_hw_tex17cublasZgemmParams : 0x7f33c7d6daa0
GPGPU-Sim PTX: __cudaRegisterFunction _Z19zgemm_6_main_hw_tex17cublasZgemmParams : 0x7f33c7d6db00
GPGPU-Sim PTX: __cudaRegisterFunction _Z19zgemm_5_main_hw_tex17cublasZgemmParams : 0x7f33c7d6db60
GPGPU-Sim PTX: __cudaRegisterFunction _Z19zgemm_4_main_hw_tex17cublasZgemmParams : 0x7f33c7d6dbc0
GPGPU-Sim PTX: __cudaRegisterFunction _Z19zgemm_3_main_hw_tex17cublasZgemmParams : 0x7f33c7d6dc20
GPGPU-Sim PTX: __cudaRegisterFunction _Z19zgemm_2_main_hw_tex17cublasZgemmParams : 0x7f33c7d6dc80
GPGPU-Sim PTX: __cudaRegisterFunction _Z19zgemm_1_main_hw_tex17cublasZgemmParams : 0x7f33c7d6dce0
GPGPU-Sim PTX: __cudaRegisterFunction _Z19zgemm_9_main_sw_tex17cublasZgemmParams : 0x7f33c7d6dd40
GPGPU-Sim PTX: __cudaRegisterFunction _Z19zgemm_8_main_sw_tex17cublasZgemmParams : 0x7f33c7d6dda0
GPGPU-Sim PTX: __cudaRegisterFunction _Z19zgemm_7_main_sw_tex17cublasZgemmParams : 0x7f33c7d6de00
GPGPU-Sim PTX: __cudaRegisterFunction _Z19zgemm_6_main_sw_tex17cublasZgemmParams : 0x7f33c7d6de60
GPGPU-Sim PTX: __cudaRegisterFunction _Z19zgemm_5_main_sw_tex17cublasZgemmParams : 0x7f33c7d6dec0
GPGPU-Sim PTX: __cudaRegisterFunction _Z19zgemm_4_main_sw_tex17cublasZgemmParams : 0x7f33c7d6df20
GPGPU-Sim PTX: __cudaRegisterFunction _Z19zgemm_3_main_sw_tex17cublasZgemmParams : 0x7f33c7d6df80
GPGPU-Sim PTX: __cudaRegisterFunction _Z19zgemm_2_main_sw_tex17cublasZgemmParams : 0x7f33c7d6dfe0
GPGPU-Sim PTX: __cudaRegisterFunction _Z19zgemm_1_main_sw_tex17cublasZgemmParams : 0x7f33c7d6e040
GPGPU-Sim PTX: __cudaRegisterFunction _Z28zgemm_9_main_hw_gld_fulltile17cublasZgemmParams : 0x7f33c7d6e0a0
GPGPU-Sim PTX: __cudaRegisterFunction _Z28zgemm_8_main_hw_gld_fulltile17cublasZgemmParams : 0x7f33c7d6e100
GPGPU-Sim PTX: __cudaRegisterFunction _Z28zgemm_7_main_hw_gld_fulltile17cublasZgemmParams : 0x7f33c7d6e160
GPGPU-Sim PTX: __cudaRegisterFunction _Z28zgemm_6_main_hw_gld_fulltile17cublasZgemmParams : 0x7f33c7d6e1c0
GPGPU-Sim PTX: __cudaRegisterFunction _Z28zgemm_5_main_hw_gld_fulltile17cublasZgemmParams : 0x7f33c7d6e220
GPGPU-Sim PTX: __cudaRegisterFunction _Z28zgemm_4_main_hw_gld_fulltile17cublasZgemmParams : 0x7f33c7d6e280
GPGPU-Sim PTX: __cudaRegisterFunction _Z28zgemm_3_main_hw_gld_fulltile17cublasZgemmParams : 0x7f33c7d6e2e0
GPGPU-Sim PTX: __cudaRegisterFunction _Z28zgemm_2_main_hw_gld_fulltile17cublasZgemmParams : 0x7f33c7d6e340
GPGPU-Sim PTX: __cudaRegisterFunction _Z28zgemm_1_main_hw_gld_fulltile17cublasZgemmParams : 0x7f33c7d6e3a0
GPGPU-Sim PTX: __cudaRegisterFunction _Z28zgemm_9_main_sw_gld_fulltile17cublasZgemmParams : 0x7f33c7d6e400
GPGPU-Sim PTX: __cudaRegisterFunction _Z28zgemm_8_main_sw_gld_fulltile17cublasZgemmParams : 0x7f33c7d6e460
GPGPU-Sim PTX: __cudaRegisterFunction _Z28zgemm_7_main_sw_gld_fulltile17cublasZgemmParams : 0x7f33c7d6e4c0
GPGPU-Sim PTX: __cudaRegisterFunction _Z28zgemm_6_main_sw_gld_fulltile17cublasZgemmParams : 0x7f33c7d6e520
GPGPU-Sim PTX: __cudaRegisterFunction _Z28zgemm_5_main_sw_gld_fulltile17cublasZgemmParams : 0x7f33c7d6e580
GPGPU-Sim PTX: __cudaRegisterFunction _Z28zgemm_4_main_sw_gld_fulltile17cublasZgemmParams : 0x7f33c7d6e5e0
GPGPU-Sim PTX: __cudaRegisterFunction _Z28zgemm_3_main_sw_gld_fulltile17cublasZgemmParams : 0x7f33c7d6e640
GPGPU-Sim PTX: __cudaRegisterFunction _Z28zgemm_2_main_sw_gld_fulltile17cublasZgemmParams : 0x7f33c7d6e6a0
GPGPU-Sim PTX: __cudaRegisterFunction _Z28zgemm_1_main_sw_gld_fulltile17cublasZgemmParams : 0x7f33c7d6e700
GPGPU-Sim PTX: __cudaRegisterFunction _Z19zgemm_9_main_hw_gld17cublasZgemmParams : 0x7f33c7d6e760
GPGPU-Sim PTX: __cudaRegisterFunction _Z19zgemm_8_main_hw_gld17cublasZgemmParams : 0x7f33c7d6e7c0
GPGPU-Sim PTX: __cudaRegisterFunction _Z19zgemm_7_main_hw_gld17cublasZgemmParams : 0x7f33c7d6e820
GPGPU-Sim PTX: __cudaRegisterFunction _Z19zgemm_6_main_hw_gld17cublasZgemmParams : 0x7f33c7d6e880
GPGPU-Sim PTX: __cudaRegisterFunction _Z19zgemm_5_main_hw_gld17cublasZgemmParams : 0x7f33c7d6e8e0
GPGPU-Sim PTX: __cudaRegisterFunction _Z19zgemm_4_main_hw_gld17cublasZgemmParams : 0x7f33c7d6e940
GPGPU-Sim PTX: __cudaRegisterFunction _Z19zgemm_3_main_hw_gld17cublasZgemmParams : 0x7f33c7d6e9a0
GPGPU-Sim PTX: __cudaRegisterFunction _Z19zgemm_2_main_hw_gld17cublasZgemmParams : 0x7f33c7d6ea00
GPGPU-Sim PTX: __cudaRegisterFunction _Z19zgemm_1_main_hw_gld17cublasZgemmParams : 0x7f33c7d6ea60
GPGPU-Sim PTX: __cudaRegisterFunction _Z19zgemm_9_main_sw_gld17cublasZgemmParams : 0x7f33c7d6eac0
GPGPU-Sim PTX: __cudaRegisterFunction _Z19zgemm_8_main_sw_gld17cublasZgemmParams : 0x7f33c7d6eb20
GPGPU-Sim PTX: __cudaRegisterFunction _Z19zgemm_7_main_sw_gld17cublasZgemmParams : 0x7f33c7d6eb80
GPGPU-Sim PTX: __cudaRegisterFunction _Z19zgemm_6_main_sw_gld17cublasZgemmParams : 0x7f33c7d6ebe0
GPGPU-Sim PTX: __cudaRegisterFunction _Z19zgemm_5_main_sw_gld17cublasZgemmParams : 0x7f33c7d6ec40
GPGPU-Sim PTX: __cudaRegisterFunction _Z19zgemm_4_main_sw_gld17cublasZgemmParams : 0x7f33c7d6eca0
GPGPU-Sim PTX: __cudaRegisterFunction _Z19zgemm_3_main_sw_gld17cublasZgemmParams : 0x7f33c7d6ed00
GPGPU-Sim PTX: __cudaRegisterFunction _Z19zgemm_2_main_sw_gld17cublasZgemmParams : 0x7f33c7d6ed60
GPGPU-Sim PTX: __cudaRegisterFunction _Z19zgemm_1_main_sw_gld17cublasZgemmParams : 0x7f33c7d6edc0
GPGPU-Sim PTX: in __cudaRegisterTexture:
GPGPU-Sim PTX:   int dim = 1
GPGPU-Sim PTX:   int norm = 0
GPGPU-Sim PTX:   int ext = 0
GPGPU-Sim PTX:   Execution warning: Not finished implementing "void __cudaRegisterTexture(void**, const textureReference*, const void**, const char*, int, int, int)"
GPGPU-Sim PTX: in __cudaRegisterTexture:
GPGPU-Sim PTX:   int dim = 1
GPGPU-Sim PTX:   int norm = 0
GPGPU-Sim PTX:   int ext = 0
GPGPU-Sim PTX:   Execution warning: Not finished implementing "void __cudaRegisterTexture(void**, const textureReference*, const void**, const char*, int, int, int)"
GPGPU-Sim PTX: __cudaRegisterSharedVar
GPGPU-Sim PTX: __cudaRegisterSharedVar
GPGPU-Sim PTX: __cudaRegisterSharedVar
GPGPU-Sim PTX: __cudaRegisterSharedVar
GPGPU-Sim PTX: __cudaRegisterFunction _Z28cgemm_9_main_hw_tex_fulltile17cublasCgemmParams : 0x7f33c7d69600
GPGPU-Sim PTX: __cudaRegisterFunction _Z28cgemm_8_main_hw_tex_fulltile17cublasCgemmParams : 0x7f33c7d69660
GPGPU-Sim PTX: __cudaRegisterFunction _Z28cgemm_7_main_hw_tex_fulltile17cublasCgemmParams : 0x7f33c7d696c0
GPGPU-Sim PTX: __cudaRegisterFunction _Z28cgemm_6_main_hw_tex_fulltile17cublasCgemmParams : 0x7f33c7d69720
GPGPU-Sim PTX: __cudaRegisterFunction _Z28cgemm_5_main_hw_tex_fulltile17cublasCgemmParams : 0x7f33c7d69780
GPGPU-Sim PTX: __cudaRegisterFunction _Z28cgemm_4_main_hw_tex_fulltile17cublasCgemmParams : 0x7f33c7d697e0
GPGPU-Sim PTX: __cudaRegisterFunction _Z28cgemm_3_main_hw_tex_fulltile17cublasCgemmParams : 0x7f33c7d69840
GPGPU-Sim PTX: __cudaRegisterFunction _Z28cgemm_2_main_hw_tex_fulltile17cublasCgemmParams : 0x7f33c7d698a0
GPGPU-Sim PTX: __cudaRegisterFunction _Z28cgemm_1_main_hw_tex_fulltile17cublasCgemmParams : 0x7f33c7d69900
GPGPU-Sim PTX: __cudaRegisterFunction _Z28cgemm_9_main_sw_tex_fulltile17cublasCgemmParams : 0x7f33c7d69960
GPGPU-Sim PTX: __cudaRegisterFunction _Z28cgemm_8_main_sw_tex_fulltile17cublasCgemmParams : 0x7f33c7d699c0
GPGPU-Sim PTX: __cudaRegisterFunction _Z28cgemm_7_main_sw_tex_fulltile17cublasCgemmParams : 0x7f33c7d69a20
GPGPU-Sim PTX: __cudaRegisterFunction _Z28cgemm_6_main_sw_tex_fulltile17cublasCgemmParams : 0x7f33c7d69a80
GPGPU-Sim PTX: __cudaRegisterFunction _Z28cgemm_5_main_sw_tex_fulltile17cublasCgemmParams : 0x7f33c7d69ae0
GPGPU-Sim PTX: __cudaRegisterFunction _Z28cgemm_4_main_sw_tex_fulltile17cublasCgemmParams : 0x7f33c7d69b40
GPGPU-Sim PTX: __cudaRegisterFunction _Z28cgemm_3_main_sw_tex_fulltile17cublasCgemmParams : 0x7f33c7d69ba0
GPGPU-Sim PTX: __cudaRegisterFunction _Z28cgemm_2_main_sw_tex_fulltile17cublasCgemmParams : 0x7f33c7d69c00
GPGPU-Sim PTX: __cudaRegisterFunction _Z28cgemm_1_main_sw_tex_fulltile17cublasCgemmParams : 0x7f33c7d69c60
GPGPU-Sim PTX: __cudaRegisterFunction _Z19cgemm_9_main_hw_tex17cublasCgemmParams : 0x7f33c7d69cc0
GPGPU-Sim PTX: __cudaRegisterFunction _Z19cgemm_8_main_hw_tex17cublasCgemmParams : 0x7f33c7d69d20
GPGPU-Sim PTX: __cudaRegisterFunction _Z19cgemm_7_main_hw_tex17cublasCgemmParams : 0x7f33c7d69d80
GPGPU-Sim PTX: __cudaRegisterFunction _Z19cgemm_6_main_hw_tex17cublasCgemmParams : 0x7f33c7d69de0
GPGPU-Sim PTX: __cudaRegisterFunction _Z19cgemm_5_main_hw_tex17cublasCgemmParams : 0x7f33c7d69e40
GPGPU-Sim PTX: __cudaRegisterFunction _Z19cgemm_4_main_hw_tex17cublasCgemmParams : 0x7f33c7d69ea0
GPGPU-Sim PTX: __cudaRegisterFunction _Z19cgemm_3_main_hw_tex17cublasCgemmParams : 0x7f33c7d69f00
GPGPU-Sim PTX: __cudaRegisterFunction _Z19cgemm_2_main_hw_tex17cublasCgemmParams : 0x7f33c7d69f60
GPGPU-Sim PTX: __cudaRegisterFunction _Z19cgemm_1_main_hw_tex17cublasCgemmParams : 0x7f33c7d69fc0
GPGPU-Sim PTX: __cudaRegisterFunction _Z19cgemm_9_main_sw_tex17cublasCgemmParams : 0x7f33c7d6a020
GPGPU-Sim PTX: __cudaRegisterFunction _Z19cgemm_8_main_sw_tex17cublasCgemmParams : 0x7f33c7d6a080
GPGPU-Sim PTX: __cudaRegisterFunction _Z19cgemm_7_main_sw_tex17cublasCgemmParams : 0x7f33c7d6a0e0
GPGPU-Sim PTX: __cudaRegisterFunction _Z19cgemm_6_main_sw_tex17cublasCgemmParams : 0x7f33c7d6a140
GPGPU-Sim PTX: __cudaRegisterFunction _Z19cgemm_5_main_sw_tex17cublasCgemmParams : 0x7f33c7d6a1a0
GPGPU-Sim PTX: __cudaRegisterFunction _Z19cgemm_4_main_sw_tex17cublasCgemmParams : 0x7f33c7d6a200
GPGPU-Sim PTX: __cudaRegisterFunction _Z19cgemm_3_main_sw_tex17cublasCgemmParams : 0x7f33c7d6a260
GPGPU-Sim PTX: __cudaRegisterFunction _Z19cgemm_2_main_sw_tex17cublasCgemmParams : 0x7f33c7d6a2c0
GPGPU-Sim PTX: __cudaRegisterFunction _Z19cgemm_1_main_sw_tex17cublasCgemmParams : 0x7f33c7d6a320
GPGPU-Sim PTX: __cudaRegisterFunction _Z28cgemm_9_main_hw_gld_fulltile17cublasCgemmParams : 0x7f33c7d6a380
GPGPU-Sim PTX: __cudaRegisterFunction _Z28cgemm_8_main_hw_gld_fulltile17cublasCgemmParams : 0x7f33c7d6a3e0
GPGPU-Sim PTX: __cudaRegisterFunction _Z28cgemm_7_main_hw_gld_fulltile17cublasCgemmParams : 0x7f33c7d6a440
GPGPU-Sim PTX: __cudaRegisterFunction _Z28cgemm_6_main_hw_gld_fulltile17cublasCgemmParams : 0x7f33c7d6a4a0
GPGPU-Sim PTX: __cudaRegisterFunction _Z28cgemm_5_main_hw_gld_fulltile17cublasCgemmParams : 0x7f33c7d6a500
GPGPU-Sim PTX: __cudaRegisterFunction _Z28cgemm_4_main_hw_gld_fulltile17cublasCgemmParams : 0x7f33c7d6a560
GPGPU-Sim PTX: __cudaRegisterFunction _Z28cgemm_3_main_hw_gld_fulltile17cublasCgemmParams : 0x7f33c7d6a5c0
GPGPU-Sim PTX: __cudaRegisterFunction _Z28cgemm_2_main_hw_gld_fulltile17cublasCgemmParams : 0x7f33c7d6a620
GPGPU-Sim PTX: __cudaRegisterFunction _Z28cgemm_1_main_hw_gld_fulltile17cublasCgemmParams : 0x7f33c7d6a680
GPGPU-Sim PTX: __cudaRegisterFunction _Z28cgemm_9_main_sw_gld_fulltile17cublasCgemmParams : 0x7f33c7d6a6e0
GPGPU-Sim PTX: __cudaRegisterFunction _Z28cgemm_8_main_sw_gld_fulltile17cublasCgemmParams : 0x7f33c7d6a740
GPGPU-Sim PTX: __cudaRegisterFunction _Z28cgemm_7_main_sw_gld_fulltile17cublasCgemmParams : 0x7f33c7d6a7a0
GPGPU-Sim PTX: __cudaRegisterFunction _Z28cgemm_6_main_sw_gld_fulltile17cublasCgemmParams : 0x7f33c7d6a800
GPGPU-Sim PTX: __cudaRegisterFunction _Z28cgemm_5_main_sw_gld_fulltile17cublasCgemmParams : 0x7f33c7d6a860
GPGPU-Sim PTX: __cudaRegisterFunction _Z28cgemm_4_main_sw_gld_fulltile17cublasCgemmParams : 0x7f33c7d6a8c0
GPGPU-Sim PTX: __cudaRegisterFunction _Z28cgemm_3_main_sw_gld_fulltile17cublasCgemmParams : 0x7f33c7d6a920
GPGPU-Sim PTX: __cudaRegisterFunction _Z28cgemm_2_main_sw_gld_fulltile17cublasCgemmParams : 0x7f33c7d6a980
GPGPU-Sim PTX: __cudaRegisterFunction _Z28cgemm_1_main_sw_gld_fulltile17cublasCgemmParams : 0x7f33c7d6a9e0
GPGPU-Sim PTX: __cudaRegisterFunction _Z19cgemm_9_main_hw_gld17cublasCgemmParams : 0x7f33c7d6aa40
GPGPU-Sim PTX: __cudaRegisterFunction _Z19cgemm_8_main_hw_gld17cublasCgemmParams : 0x7f33c7d6aaa0
GPGPU-Sim PTX: __cudaRegisterFunction _Z19cgemm_7_main_hw_gld17cublasCgemmParams : 0x7f33c7d6ab00
GPGPU-Sim PTX: __cudaRegisterFunction _Z19cgemm_6_main_hw_gld17cublasCgemmParams : 0x7f33c7d6ab60
GPGPU-Sim PTX: __cudaRegisterFunction _Z19cgemm_5_main_hw_gld17cublasCgemmParams : 0x7f33c7d6abc0
GPGPU-Sim PTX: __cudaRegisterFunction _Z19cgemm_4_main_hw_gld17cublasCgemmParams : 0x7f33c7d6ac20
GPGPU-Sim PTX: __cudaRegisterFunction _Z19cgemm_3_main_hw_gld17cublasCgemmParams : 0x7f33c7d6ac80
GPGPU-Sim PTX: __cudaRegisterFunction _Z19cgemm_2_main_hw_gld17cublasCgemmParams : 0x7f33c7d6ace0
GPGPU-Sim PTX: __cudaRegisterFunction _Z19cgemm_1_main_hw_gld17cublasCgemmParams : 0x7f33c7d6ad40
GPGPU-Sim PTX: __cudaRegisterFunction _Z19cgemm_9_main_sw_gld17cublasCgemmParams : 0x7f33c7d6ada0
GPGPU-Sim PTX: __cudaRegisterFunction _Z19cgemm_8_main_sw_gld17cublasCgemmParams : 0x7f33c7d6ae00
GPGPU-Sim PTX: __cudaRegisterFunction _Z19cgemm_7_main_sw_gld17cublasCgemmParams : 0x7f33c7d6ae60
GPGPU-Sim PTX: __cudaRegisterFunction _Z19cgemm_6_main_sw_gld17cublasCgemmParams : 0x7f33c7d6aec0
GPGPU-Sim PTX: __cudaRegisterFunction _Z19cgemm_5_main_sw_gld17cublasCgemmParams : 0x7f33c7d6af20
GPGPU-Sim PTX: __cudaRegisterFunction _Z19cgemm_4_main_sw_gld17cublasCgemmParams : 0x7f33c7d6af80
GPGPU-Sim PTX: __cudaRegisterFunction _Z19cgemm_3_main_sw_gld17cublasCgemmParams : 0x7f33c7d6afe0
GPGPU-Sim PTX: __cudaRegisterFunction _Z19cgemm_2_main_sw_gld17cublasCgemmParams : 0x7f33c7d6b040
GPGPU-Sim PTX: __cudaRegisterFunction _Z19cgemm_1_main_sw_gld17cublasCgemmParams : 0x7f33c7d6b0a0
GPGPU-Sim PTX: in __cudaRegisterTexture:
GPGPU-Sim PTX:   int dim = 1
GPGPU-Sim PTX:   int norm = 0
GPGPU-Sim PTX:   int ext = 0
GPGPU-Sim PTX:   Execution warning: Not finished implementing "void __cudaRegisterTexture(void**, const textureReference*, const void**, const char*, int, int, int)"
GPGPU-Sim PTX: in __cudaRegisterTexture:
GPGPU-Sim PTX:   int dim = 1
GPGPU-Sim PTX:   int norm = 0
GPGPU-Sim PTX:   int ext = 0
GPGPU-Sim PTX:   Execution warning: Not finished implementing "void __cudaRegisterTexture(void**, const textureReference*, const void**, const char*, int, int, int)"
GPGPU-Sim PTX: __cudaRegisterSharedVar
GPGPU-Sim PTX: __cudaRegisterSharedVar
GPGPU-Sim PTX: __cudaRegisterSharedVar
GPGPU-Sim PTX: __cudaRegisterSharedVar
GPGPU-Sim PTX: __cudaRegisterFunction _Z11scnrm2_main18cublasScnrm2Params : 0x7f33c7d66f20
GPGPU-Sim PTX: __cudaRegisterFunction _Z15scasum_tex_main18cublasScasumParams : 0x7f33c7d66740
GPGPU-Sim PTX: __cudaRegisterFunction _Z15scasum_gld_main18cublasScasumParams : 0x7f33c7d667a0
GPGPU-Sim PTX: in __cudaRegisterTexture:
GPGPU-Sim PTX:   int dim = 1
GPGPU-Sim PTX:   int norm = 0
GPGPU-Sim PTX:   int ext = 0
GPGPU-Sim PTX:   Execution warning: Not finished implementing "void __cudaRegisterTexture(void**, const textureReference*, const void**, const char*, int, int, int)"
GPGPU-Sim PTX: __cudaRegisterSharedVar
GPGPU-Sim PTX: __cudaRegisterFunction _Z15icamin_tex_main18cublasIcaminParams : 0x7f33c7d65a50
GPGPU-Sim PTX: __cudaRegisterFunction _Z15icamin_gld_main18cublasIcaminParams : 0x7f33c7d65ab0
GPGPU-Sim PTX: in __cudaRegisterTexture:
GPGPU-Sim PTX:   int dim = 1
GPGPU-Sim PTX:   int norm = 0
GPGPU-Sim PTX:   int ext = 0
GPGPU-Sim PTX:   Execution warning: Not finished implementing "void __cudaRegisterTexture(void**, const textureReference*, const void**, const char*, int, int, int)"
GPGPU-Sim PTX: __cudaRegisterSharedVar
GPGPU-Sim PTX: __cudaRegisterSharedVar
GPGPU-Sim PTX: __cudaRegisterFunction _Z15icamax_tex_main18cublasIcamaxParams : 0x7f33c7d64d50
GPGPU-Sim PTX: __cudaRegisterFunction _Z15icamax_gld_main18cublasIcamaxParams : 0x7f33c7d64db0
GPGPU-Sim PTX: in __cudaRegisterTexture:
GPGPU-Sim PTX:   int dim = 1
GPGPU-Sim PTX:   int norm = 0
GPGPU-Sim PTX:   int ext = 0
GPGPU-Sim PTX:   Execution warning: Not finished implementing "void __cudaRegisterTexture(void**, const textureReference*, const void**, const char*, int, int, int)"
GPGPU-Sim PTX: __cudaRegisterSharedVar
GPGPU-Sim PTX: __cudaRegisterSharedVar
GPGPU-Sim PTX: __cudaRegisterFunction _Z10cswap_main17cublasCswapParams : 0x7f33c7d64860
GPGPU-Sim PTX: __cudaRegisterFunction _Z10csrot_main17cublasCsrotParams : 0x7f33c7d64460
GPGPU-Sim PTX: __cudaRegisterFunction _Z11csscal_main18cublasCsscalParams : 0x7f33c7d640b0
GPGPU-Sim PTX: __cudaRegisterFunction _Z10cscal_main17cublasCscalParams : 0x7f33c7d63d00
GPGPU-Sim PTX: __cudaRegisterFunction _Z9crot_main16cublasCrotParams : 0x7f33c7d62af0
GPGPU-Sim PTX: __cudaRegisterFunction _Z14cdotu_tex_main17cublasCdotuParams : 0x7f33c7d62020
GPGPU-Sim PTX: __cudaRegisterFunction _Z14cdotu_gld_main17cublasCdotuParams : 0x7f33c7d62080
GPGPU-Sim PTX: in __cudaRegisterTexture:
GPGPU-Sim PTX:   int dim = 1
GPGPU-Sim PTX:   int norm = 0
GPGPU-Sim PTX:   int ext = 0
GPGPU-Sim PTX:   Execution warning: Not finished implementing "void __cudaRegisterTexture(void**, const textureReference*, const void**, const char*, int, int, int)"
GPGPU-Sim PTX: in __cudaRegisterTexture:
GPGPU-Sim PTX:   int dim = 1
GPGPU-Sim PTX:   int norm = 0
GPGPU-Sim PTX:   int ext = 0
GPGPU-Sim PTX:   Execution warning: Not finished implementing "void __cudaRegisterTexture(void**, const textureReference*, const void**, const char*, int, int, int)"
GPGPU-Sim PTX: __cudaRegisterSharedVar
GPGPU-Sim PTX: __cudaRegisterFunction _Z14cdotc_tex_main17cublasCdotcParams : 0x7f33c7d613b0
GPGPU-Sim PTX: __cudaRegisterFunction _Z14cdotc_gld_main17cublasCdotcParams : 0x7f33c7d61410
GPGPU-Sim PTX: in __cudaRegisterTexture:
GPGPU-Sim PTX:   int dim = 1
GPGPU-Sim PTX:   int norm = 0
GPGPU-Sim PTX:   int ext = 0
GPGPU-Sim PTX:   Execution warning: Not finished implementing "void __cudaRegisterTexture(void**, const textureReference*, const void**, const char*, int, int, int)"
GPGPU-Sim PTX: in __cudaRegisterTexture:
GPGPU-Sim PTX:   int dim = 1
GPGPU-Sim PTX:   int norm = 0
GPGPU-Sim PTX:   int ext = 0
GPGPU-Sim PTX:   Execution warning: Not finished implementing "void __cudaRegisterTexture(void**, const textureReference*, const void**, const char*, int, int, int)"
GPGPU-Sim PTX: __cudaRegisterSharedVar
GPGPU-Sim PTX: __cudaRegisterFunction _Z10ccopy_main17cublasCcopyParams : 0x7f33c7d60e40
GPGPU-Sim PTX: __cudaRegisterFunction _Z10caxpy_main17cublasCaxpyParams : 0x7f33c7d609e0
GPGPU-Sim PTX: __cudaRegisterFunction _Z16strsv_main_nt_lo17cublasStrsvParams : 0x7f33c7d601c0
GPGPU-Sim PTX: __cudaRegisterFunction _Z16strsv_main_nt_up17cublasStrsvParams : 0x7f33c7d60220
GPGPU-Sim PTX: __cudaRegisterFunction _Z16strsv_main_tr_lo17cublasStrsvParams : 0x7f33c7d60280
GPGPU-Sim PTX: __cudaRegisterFunction _Z16strsv_main_tr_up17cublasStrsvParams : 0x7f33c7d602e0
GPGPU-Sim PTX: __cudaRegisterSharedVar
GPGPU-Sim PTX: __cudaRegisterSharedVar
GPGPU-Sim PTX: __cudaRegisterFunction _Z40strsm_r_up_tr_main_fulltile_alpha0_hw_nu17cublasStrsmParams : 0x7f33c7d5c650
GPGPU-Sim PTX: __cudaRegisterFunction _Z40strsm_r_up_nt_main_fulltile_alpha0_hw_nu17cublasStrsmParams : 0x7f33c7d5c6b0
GPGPU-Sim PTX: __cudaRegisterFunction _Z40strsm_r_lo_tr_main_fulltile_alpha0_hw_nu17cublasStrsmParams : 0x7f33c7d5c710
GPGPU-Sim PTX: __cudaRegisterFunction _Z40strsm_r_lo_nt_main_fulltile_alpha0_hw_nu17cublasStrsmParams : 0x7f33c7d5c770
GPGPU-Sim PTX: __cudaRegisterFunction _Z31strsm_r_up_tr_main_alpha0_hw_nu17cublasStrsmParams : 0x7f33c7d5c7d0
GPGPU-Sim PTX: __cudaRegisterFunction _Z31strsm_r_up_nt_main_alpha0_hw_nu17cublasStrsmParams : 0x7f33c7d5c830
GPGPU-Sim PTX: __cudaRegisterFunction _Z31strsm_r_lo_tr_main_alpha0_hw_nu17cublasStrsmParams : 0x7f33c7d5c890
GPGPU-Sim PTX: __cudaRegisterFunction _Z31strsm_r_lo_nt_main_alpha0_hw_nu17cublasStrsmParams : 0x7f33c7d5c8f0
GPGPU-Sim PTX: __cudaRegisterFunction _Z33strsm_r_up_tr_main_fulltile_hw_nu17cublasStrsmParams : 0x7f33c7d5c950
GPGPU-Sim PTX: __cudaRegisterFunction _Z33strsm_r_up_nt_main_fulltile_hw_nu17cublasStrsmParams : 0x7f33c7d5c9b0
GPGPU-Sim PTX: __cudaRegisterFunction _Z33strsm_r_lo_tr_main_fulltile_hw_nu17cublasStrsmParams : 0x7f33c7d5ca10
GPGPU-Sim PTX: __cudaRegisterFunction _Z33strsm_r_lo_nt_main_fulltile_hw_nu17cublasStrsmParams : 0x7f33c7d5ca70
GPGPU-Sim PTX: __cudaRegisterFunction _Z24strsm_r_up_tr_main_hw_nu17cublasStrsmParams : 0x7f33c7d5cad0
GPGPU-Sim PTX: __cudaRegisterFunction _Z24strsm_r_up_nt_main_hw_nu17cublasStrsmParams : 0x7f33c7d5cb30
GPGPU-Sim PTX: __cudaRegisterFunction _Z24strsm_r_lo_tr_main_hw_nu17cublasStrsmParams : 0x7f33c7d5cb90
GPGPU-Sim PTX: __cudaRegisterFunction _Z24strsm_r_lo_nt_main_hw_nu17cublasStrsmParams : 0x7f33c7d5cbf0
GPGPU-Sim PTX: __cudaRegisterFunction _Z40strsm_r_up_tr_main_fulltile_alpha0_sw_nu17cublasStrsmParams : 0x7f33c7d5cc50
GPGPU-Sim PTX: __cudaRegisterFunction _Z40strsm_r_up_nt_main_fulltile_alpha0_sw_nu17cublasStrsmParams : 0x7f33c7d5ccb0
GPGPU-Sim PTX: __cudaRegisterFunction _Z40strsm_r_lo_tr_main_fulltile_alpha0_sw_nu17cublasStrsmParams : 0x7f33c7d5cd10
GPGPU-Sim PTX: __cudaRegisterFunction _Z40strsm_r_lo_nt_main_fulltile_alpha0_sw_nu17cublasStrsmParams : 0x7f33c7d5cd70
GPGPU-Sim PTX: __cudaRegisterFunction _Z31strsm_r_up_tr_main_alpha0_sw_nu17cublasStrsmParams : 0x7f33c7d5cdd0
GPGPU-Sim PTX: __cudaRegisterFunction _Z31strsm_r_up_nt_main_alpha0_sw_nu17cublasStrsmParams : 0x7f33c7d5ce30
GPGPU-Sim PTX: __cudaRegisterFunction _Z31strsm_r_lo_tr_main_alpha0_sw_nu17cublasStrsmParams : 0x7f33c7d5ce90
GPGPU-Sim PTX: __cudaRegisterFunction _Z31strsm_r_lo_nt_main_alpha0_sw_nu17cublasStrsmParams : 0x7f33c7d5cef0
GPGPU-Sim PTX: __cudaRegisterFunction _Z33strsm_r_up_tr_main_fulltile_sw_nu17cublasStrsmParams : 0x7f33c7d5cf50
GPGPU-Sim PTX: __cudaRegisterFunction _Z33strsm_r_up_nt_main_fulltile_sw_nu17cublasStrsmParams : 0x7f33c7d5cfb0
GPGPU-Sim PTX: __cudaRegisterFunction _Z33strsm_r_lo_tr_main_fulltile_sw_nu17cublasStrsmParams : 0x7f33c7d5d010
GPGPU-Sim PTX: __cudaRegisterFunction _Z33strsm_r_lo_nt_main_fulltile_sw_nu17cublasStrsmParams : 0x7f33c7d5d070
GPGPU-Sim PTX: __cudaRegisterFunction _Z24strsm_r_up_tr_main_sw_nu17cublasStrsmParams : 0x7f33c7d5d0d0
GPGPU-Sim PTX: __cudaRegisterFunction _Z24strsm_r_up_nt_main_sw_nu17cublasStrsmParams : 0x7f33c7d5d130
GPGPU-Sim PTX: __cudaRegisterFunction _Z24strsm_r_lo_tr_main_sw_nu17cublasStrsmParams : 0x7f33c7d5d190
GPGPU-Sim PTX: __cudaRegisterFunction _Z24strsm_r_lo_nt_main_sw_nu17cublasStrsmParams : 0x7f33c7d5d1f0
GPGPU-Sim PTX: __cudaRegisterFunction _Z37strsm_r_up_tr_main_fulltile_alpha0_hw17cublasStrsmParams : 0x7f33c7d5d250
GPGPU-Sim PTX: __cudaRegisterFunction _Z37strsm_r_up_nt_main_fulltile_alpha0_hw17cublasStrsmParams : 0x7f33c7d5d2b0
GPGPU-Sim PTX: __cudaRegisterFunction _Z37strsm_r_lo_tr_main_fulltile_alpha0_hw17cublasStrsmParams : 0x7f33c7d5d310
GPGPU-Sim PTX: __cudaRegisterFunction _Z37strsm_r_lo_nt_main_fulltile_alpha0_hw17cublasStrsmParams : 0x7f33c7d5d370
GPGPU-Sim PTX: __cudaRegisterFunction _Z28strsm_r_up_tr_main_alpha0_hw17cublasStrsmParams : 0x7f33c7d5d3d0
GPGPU-Sim PTX: __cudaRegisterFunction _Z28strsm_r_up_nt_main_alpha0_hw17cublasStrsmParams : 0x7f33c7d5d430
GPGPU-Sim PTX: __cudaRegisterFunction _Z28strsm_r_lo_tr_main_alpha0_hw17cublasStrsmParams : 0x7f33c7d5d490
GPGPU-Sim PTX: __cudaRegisterFunction _Z28strsm_r_lo_nt_main_alpha0_hw17cublasStrsmParams : 0x7f33c7d5d4f0
GPGPU-Sim PTX: __cudaRegisterFunction _Z30strsm_r_up_tr_main_fulltile_hw17cublasStrsmParams : 0x7f33c7d5d550
GPGPU-Sim PTX: __cudaRegisterFunction _Z30strsm_r_up_nt_main_fulltile_hw17cublasStrsmParams : 0x7f33c7d5d5b0
GPGPU-Sim PTX: __cudaRegisterFunction _Z30strsm_r_lo_tr_main_fulltile_hw17cublasStrsmParams : 0x7f33c7d5d610
GPGPU-Sim PTX: __cudaRegisterFunction _Z30strsm_r_lo_nt_main_fulltile_hw17cublasStrsmParams : 0x7f33c7d5d670
GPGPU-Sim PTX: __cudaRegisterFunction _Z21strsm_r_up_tr_main_hw17cublasStrsmParams : 0x7f33c7d5d6d0
GPGPU-Sim PTX: __cudaRegisterFunction _Z21strsm_r_up_nt_main_hw17cublasStrsmParams : 0x7f33c7d5d730
GPGPU-Sim PTX: __cudaRegisterFunction _Z21strsm_r_lo_tr_main_hw17cublasStrsmParams : 0x7f33c7d5d790
GPGPU-Sim PTX: __cudaRegisterFunction _Z21strsm_r_lo_nt_main_hw17cublasStrsmParams : 0x7f33c7d5d7f0
GPGPU-Sim PTX: __cudaRegisterFunction _Z37strsm_r_up_tr_main_fulltile_alpha0_sw17cublasStrsmParams : 0x7f33c7d5d850
GPGPU-Sim PTX: __cudaRegisterFunction _Z37strsm_r_up_nt_main_fulltile_alpha0_sw17cublasStrsmParams : 0x7f33c7d5d8b0
GPGPU-Sim PTX: __cudaRegisterFunction _Z37strsm_r_lo_tr_main_fulltile_alpha0_sw17cublasStrsmParams : 0x7f33c7d5d910
GPGPU-Sim PTX: __cudaRegisterFunction _Z37strsm_r_lo_nt_main_fulltile_alpha0_sw17cublasStrsmParams : 0x7f33c7d5d970
GPGPU-Sim PTX: __cudaRegisterFunction _Z28strsm_r_up_tr_main_alpha0_sw17cublasStrsmParams : 0x7f33c7d5d9d0
GPGPU-Sim PTX: __cudaRegisterFunction _Z28strsm_r_up_nt_main_alpha0_sw17cublasStrsmParams : 0x7f33c7d5da30
GPGPU-Sim PTX: __cudaRegisterFunction _Z28strsm_r_lo_tr_main_alpha0_sw17cublasStrsmParams : 0x7f33c7d5da90
GPGPU-Sim PTX: __cudaRegisterFunction _Z28strsm_r_lo_nt_main_alpha0_sw17cublasStrsmParams : 0x7f33c7d5daf0
GPGPU-Sim PTX: __cudaRegisterFunction _Z30strsm_r_up_tr_main_fulltile_sw17cublasStrsmParams : 0x7f33c7d5db50
GPGPU-Sim PTX: __cudaRegisterFunction _Z30strsm_r_up_nt_main_fulltile_sw17cublasStrsmParams : 0x7f33c7d5dbb0
GPGPU-Sim PTX: __cudaRegisterFunction _Z30strsm_r_lo_tr_main_fulltile_sw17cublasStrsmParams : 0x7f33c7d5dc10
GPGPU-Sim PTX: __cudaRegisterFunction _Z30strsm_r_lo_nt_main_fulltile_sw17cublasStrsmParams : 0x7f33c7d5dc70
GPGPU-Sim PTX: __cudaRegisterFunction _Z21strsm_r_up_tr_main_sw17cublasStrsmParams : 0x7f33c7d5dcd0
GPGPU-Sim PTX: __cudaRegisterFunction _Z21strsm_r_up_nt_main_sw17cublasStrsmParams : 0x7f33c7d5dd30
GPGPU-Sim PTX: __cudaRegisterFunction _Z21strsm_r_lo_tr_main_sw17cublasStrsmParams : 0x7f33c7d5dd90
GPGPU-Sim PTX: __cudaRegisterFunction _Z21strsm_r_lo_nt_main_sw17cublasStrsmParams : 0x7f33c7d5ddf0
GPGPU-Sim PTX: __cudaRegisterFunction _Z40strsm_l_up_tr_main_fulltile_alpha0_sw_nu17cublasStrsmParams : 0x7f33c7d5de50
GPGPU-Sim PTX: __cudaRegisterFunction _Z40strsm_l_up_nt_main_fulltile_alpha0_sw_nu17cublasStrsmParams : 0x7f33c7d5deb0
GPGPU-Sim PTX: __cudaRegisterFunction _Z40strsm_l_lo_tr_main_fulltile_alpha0_sw_nu17cublasStrsmParams : 0x7f33c7d5df10
GPGPU-Sim PTX: __cudaRegisterFunction _Z40strsm_l_lo_nt_main_fulltile_alpha0_sw_nu17cublasStrsmParams : 0x7f33c7d5df70
GPGPU-Sim PTX: __cudaRegisterFunction _Z31strsm_l_up_tr_main_alpha0_sw_nu17cublasStrsmParams : 0x7f33c7d5dfd0
GPGPU-Sim PTX: __cudaRegisterFunction _Z31strsm_l_up_nt_main_alpha0_sw_nu17cublasStrsmParams : 0x7f33c7d5e030
GPGPU-Sim PTX: __cudaRegisterFunction _Z31strsm_l_lo_tr_main_alpha0_sw_nu17cublasStrsmParams : 0x7f33c7d5e090
GPGPU-Sim PTX: __cudaRegisterFunction _Z31strsm_l_lo_nt_main_alpha0_sw_nu17cublasStrsmParams : 0x7f33c7d5e0f0
GPGPU-Sim PTX: __cudaRegisterFunction _Z33strsm_l_up_tr_main_fulltile_sw_nu17cublasStrsmParams : 0x7f33c7d5e150
GPGPU-Sim PTX: __cudaRegisterFunction _Z33strsm_l_up_nt_main_fulltile_sw_nu17cublasStrsmParams : 0x7f33c7d5e1b0
GPGPU-Sim PTX: __cudaRegisterFunction _Z33strsm_l_lo_tr_main_fulltile_sw_nu17cublasStrsmParams : 0x7f33c7d5e210
GPGPU-Sim PTX: __cudaRegisterFunction _Z33strsm_l_lo_nt_main_fulltile_sw_nu17cublasStrsmParams : 0x7f33c7d5e270
GPGPU-Sim PTX: __cudaRegisterFunction _Z24strsm_l_up_tr_main_sw_nu17cublasStrsmParams : 0x7f33c7d5e2d0
GPGPU-Sim PTX: __cudaRegisterFunction _Z24strsm_l_up_nt_main_sw_nu17cublasStrsmParams : 0x7f33c7d5e330
GPGPU-Sim PTX: __cudaRegisterFunction _Z24strsm_l_lo_tr_main_sw_nu17cublasStrsmParams : 0x7f33c7d5e390
GPGPU-Sim PTX: __cudaRegisterFunction _Z24strsm_l_lo_nt_main_sw_nu17cublasStrsmParams : 0x7f33c7d5e3f0
GPGPU-Sim PTX: __cudaRegisterFunction _Z40strsm_l_up_tr_main_fulltile_alpha0_hw_nu17cublasStrsmParams : 0x7f33c7d5e450
GPGPU-Sim PTX: __cudaRegisterFunction _Z40strsm_l_up_nt_main_fulltile_alpha0_hw_nu17cublasStrsmParams : 0x7f33c7d5e4b0
GPGPU-Sim PTX: __cudaRegisterFunction _Z40strsm_l_lo_tr_main_fulltile_alpha0_hw_nu17cublasStrsmParams : 0x7f33c7d5e510
GPGPU-Sim PTX: __cudaRegisterFunction _Z40strsm_l_lo_nt_main_fulltile_alpha0_hw_nu17cublasStrsmParams : 0x7f33c7d5e570
GPGPU-Sim PTX: __cudaRegisterFunction _Z31strsm_l_up_tr_main_alpha0_hw_nu17cublasStrsmParams : 0x7f33c7d5e5d0
GPGPU-Sim PTX: __cudaRegisterFunction _Z31strsm_l_up_nt_main_alpha0_hw_nu17cublasStrsmParams : 0x7f33c7d5e630
GPGPU-Sim PTX: __cudaRegisterFunction _Z31strsm_l_lo_tr_main_alpha0_hw_nu17cublasStrsmParams : 0x7f33c7d5e690
GPGPU-Sim PTX: __cudaRegisterFunction _Z31strsm_l_lo_nt_main_alpha0_hw_nu17cublasStrsmParams : 0x7f33c7d5e6f0
GPGPU-Sim PTX: __cudaRegisterFunction _Z33strsm_l_up_tr_main_fulltile_hw_nu17cublasStrsmParams : 0x7f33c7d5e750
GPGPU-Sim PTX: __cudaRegisterFunction _Z33strsm_l_up_nt_main_fulltile_hw_nu17cublasStrsmParams : 0x7f33c7d5e7b0
GPGPU-Sim PTX: __cudaRegisterFunction _Z33strsm_l_lo_tr_main_fulltile_hw_nu17cublasStrsmParams : 0x7f33c7d5e810
GPGPU-Sim PTX: __cudaRegisterFunction _Z33strsm_l_lo_nt_main_fulltile_hw_nu17cublasStrsmParams : 0x7f33c7d5e870
GPGPU-Sim PTX: __cudaRegisterFunction _Z24strsm_l_up_tr_main_hw_nu17cublasStrsmParams : 0x7f33c7d5e8d0
GPGPU-Sim PTX: __cudaRegisterFunction _Z24strsm_l_up_nt_main_hw_nu17cublasStrsmParams : 0x7f33c7d5e930
GPGPU-Sim PTX: __cudaRegisterFunction _Z24strsm_l_lo_tr_main_hw_nu17cublasStrsmParams : 0x7f33c7d5e990
GPGPU-Sim PTX: __cudaRegisterFunction _Z24strsm_l_lo_nt_main_hw_nu17cublasStrsmParams : 0x7f33c7d5e9f0
GPGPU-Sim PTX: __cudaRegisterFunction _Z37strsm_l_up_tr_main_fulltile_alpha0_sw17cublasStrsmParams : 0x7f33c7d5ea50
GPGPU-Sim PTX: __cudaRegisterFunction _Z37strsm_l_up_nt_main_fulltile_alpha0_sw17cublasStrsmParams : 0x7f33c7d5eab0
GPGPU-Sim PTX: __cudaRegisterFunction _Z37strsm_l_lo_tr_main_fulltile_alpha0_sw17cublasStrsmParams : 0x7f33c7d5eb10
GPGPU-Sim PTX: __cudaRegisterFunction _Z37strsm_l_lo_nt_main_fulltile_alpha0_sw17cublasStrsmParams : 0x7f33c7d5eb70
GPGPU-Sim PTX: __cudaRegisterFunction _Z28strsm_l_up_tr_main_alpha0_sw17cublasStrsmParams : 0x7f33c7d5ebd0
GPGPU-Sim PTX: __cudaRegisterFunction _Z28strsm_l_up_nt_main_alpha0_sw17cublasStrsmParams : 0x7f33c7d5ec30
GPGPU-Sim PTX: __cudaRegisterFunction _Z28strsm_l_lo_tr_main_alpha0_sw17cublasStrsmParams : 0x7f33c7d5ec90
GPGPU-Sim PTX: __cudaRegisterFunction _Z28strsm_l_lo_nt_main_alpha0_sw17cublasStrsmParams : 0x7f33c7d5ecf0
GPGPU-Sim PTX: __cudaRegisterFunction _Z30strsm_l_up_tr_main_fulltile_sw17cublasStrsmParams : 0x7f33c7d5ed50
GPGPU-Sim PTX: __cudaRegisterFunction _Z30strsm_l_up_nt_main_fulltile_sw17cublasStrsmParams : 0x7f33c7d5edb0
GPGPU-Sim PTX: __cudaRegisterFunction _Z30strsm_l_lo_tr_main_fulltile_sw17cublasStrsmParams : 0x7f33c7d5ee10
GPGPU-Sim PTX: __cudaRegisterFunction _Z30strsm_l_lo_nt_main_fulltile_sw17cublasStrsmParams : 0x7f33c7d5ee70
GPGPU-Sim PTX: __cudaRegisterFunction _Z21strsm_l_up_tr_main_sw17cublasStrsmParams : 0x7f33c7d5eed0
GPGPU-Sim PTX: __cudaRegisterFunction _Z21strsm_l_up_nt_main_sw17cublasStrsmParams : 0x7f33c7d5ef30
GPGPU-Sim PTX: __cudaRegisterFunction _Z21strsm_l_lo_tr_main_sw17cublasStrsmParams : 0x7f33c7d5ef90
GPGPU-Sim PTX: __cudaRegisterFunction _Z21strsm_l_lo_nt_main_sw17cublasStrsmParams : 0x7f33c7d5eff0
GPGPU-Sim PTX: __cudaRegisterFunction _Z37strsm_l_up_tr_main_fulltile_alpha0_hw17cublasStrsmParams : 0x7f33c7d5f050
GPGPU-Sim PTX: __cudaRegisterFunction _Z37strsm_l_up_nt_main_fulltile_alpha0_hw17cublasStrsmParams : 0x7f33c7d5f0b0
GPGPU-Sim PTX: __cudaRegisterFunction _Z37strsm_l_lo_tr_main_fulltile_alpha0_hw17cublasStrsmParams : 0x7f33c7d5f110
GPGPU-Sim PTX: __cudaRegisterFunction _Z37strsm_l_lo_nt_main_fulltile_alpha0_hw17cublasStrsmParams : 0x7f33c7d5f170
GPGPU-Sim PTX: __cudaRegisterFunction _Z28strsm_l_up_tr_main_alpha0_hw17cublasStrsmParams : 0x7f33c7d5f1d0
GPGPU-Sim PTX: __cudaRegisterFunction _Z28strsm_l_up_nt_main_alpha0_hw17cublasStrsmParams : 0x7f33c7d5f230
GPGPU-Sim PTX: __cudaRegisterFunction _Z28strsm_l_lo_tr_main_alpha0_hw17cublasStrsmParams : 0x7f33c7d5f290
GPGPU-Sim PTX: __cudaRegisterFunction _Z28strsm_l_lo_nt_main_alpha0_hw17cublasStrsmParams : 0x7f33c7d5f2f0
GPGPU-Sim PTX: __cudaRegisterFunction _Z30strsm_l_up_tr_main_fulltile_hw17cublasStrsmParams : 0x7f33c7d5f350
GPGPU-Sim PTX: __cudaRegisterFunction _Z30strsm_l_up_nt_main_fulltile_hw17cublasStrsmParams : 0x7f33c7d5f3b0
GPGPU-Sim PTX: __cudaRegisterFunction _Z30strsm_l_lo_tr_main_fulltile_hw17cublasStrsmParams : 0x7f33c7d5f410
GPGPU-Sim PTX: __cudaRegisterFunction _Z30strsm_l_lo_nt_main_fulltile_hw17cublasStrsmParams : 0x7f33c7d5f470
GPGPU-Sim PTX: __cudaRegisterFunction _Z21strsm_l_up_tr_main_hw17cublasStrsmParams : 0x7f33c7d5f4d0
GPGPU-Sim PTX: __cudaRegisterFunction _Z21strsm_l_up_nt_main_hw17cublasStrsmParams : 0x7f33c7d5f530
GPGPU-Sim PTX: __cudaRegisterFunction _Z21strsm_l_lo_tr_main_hw17cublasStrsmParams : 0x7f33c7d5f590
GPGPU-Sim PTX: __cudaRegisterFunction _Z21strsm_l_lo_nt_main_hw17cublasStrsmParams : 0x7f33c7d5f5f0
GPGPU-Sim PTX: __cudaRegisterSharedVar
GPGPU-Sim PTX: __cudaRegisterSharedVar
GPGPU-Sim PTX: __cudaRegisterFunction _Z16strmv_lo_nt_main17cublasStrmvParams : 0x7f33c7d599c0
GPGPU-Sim PTX: __cudaRegisterFunction _Z16strmv_lo_tr_main17cublasStrmvParams : 0x7f33c7d59a20
GPGPU-Sim PTX: __cudaRegisterFunction _Z16strmv_up_nt_main17cublasStrmvParams : 0x7f33c7d59a80
GPGPU-Sim PTX: __cudaRegisterFunction _Z16strmv_up_tr_main17cublasStrmvParams : 0x7f33c7d59ae0
GPGPU-Sim PTX: __cudaRegisterSharedVar
GPGPU-Sim PTX: __cudaRegisterFunction _Z42strmm_r_lo_tr_main_unit_alpha0_fulltile_hw17cublasStrmmParams : 0x7f33c7d56130
GPGPU-Sim PTX: __cudaRegisterFunction _Z42strmm_r_up_tr_main_unit_alpha0_fulltile_hw17cublasStrmmParams : 0x7f33c7d56190
GPGPU-Sim PTX: __cudaRegisterFunction _Z42strmm_r_lo_nt_main_unit_alpha0_fulltile_hw17cublasStrmmParams : 0x7f33c7d561f0
GPGPU-Sim PTX: __cudaRegisterFunction _Z42strmm_r_up_nt_main_unit_alpha0_fulltile_hw17cublasStrmmParams : 0x7f33c7d56250
GPGPU-Sim PTX: __cudaRegisterFunction _Z42strmm_l_lo_tr_main_unit_alpha0_fulltile_hw17cublasStrmmParams : 0x7f33c7d562b0
GPGPU-Sim PTX: __cudaRegisterFunction _Z42strmm_l_up_tr_main_unit_alpha0_fulltile_hw17cublasStrmmParams : 0x7f33c7d56310
GPGPU-Sim PTX: __cudaRegisterFunction _Z42strmm_l_lo_nt_main_unit_alpha0_fulltile_hw17cublasStrmmParams : 0x7f33c7d56370
GPGPU-Sim PTX: __cudaRegisterFunction _Z42strmm_l_up_nt_main_unit_alpha0_fulltile_hw17cublasStrmmParams : 0x7f33c7d563d0
GPGPU-Sim PTX: __cudaRegisterFunction _Z37strmm_r_lo_tr_main_alpha0_fulltile_hw17cublasStrmmParams : 0x7f33c7d56430
GPGPU-Sim PTX: __cudaRegisterFunction _Z37strmm_r_up_tr_main_alpha0_fulltile_hw17cublasStrmmParams : 0x7f33c7d56490
GPGPU-Sim PTX: __cudaRegisterFunction _Z37strmm_r_lo_nt_main_alpha0_fulltile_hw17cublasStrmmParams : 0x7f33c7d564f0
GPGPU-Sim PTX: __cudaRegisterFunction _Z37strmm_r_up_nt_main_alpha0_fulltile_hw17cublasStrmmParams : 0x7f33c7d56550
GPGPU-Sim PTX: __cudaRegisterFunction _Z37strmm_l_lo_tr_main_alpha0_fulltile_hw17cublasStrmmParams : 0x7f33c7d565b0
GPGPU-Sim PTX: __cudaRegisterFunction _Z37strmm_l_up_tr_main_alpha0_fulltile_hw17cublasStrmmParams : 0x7f33c7d56610
GPGPU-Sim PTX: __cudaRegisterFunction _Z37strmm_l_lo_nt_main_alpha0_fulltile_hw17cublasStrmmParams : 0x7f33c7d56670
GPGPU-Sim PTX: __cudaRegisterFunction _Z37strmm_l_up_nt_main_alpha0_fulltile_hw17cublasStrmmParams : 0x7f33c7d566d0
GPGPU-Sim PTX: __cudaRegisterFunction _Z35strmm_r_lo_tr_main_unit_fulltile_hw17cublasStrmmParams : 0x7f33c7d56730
GPGPU-Sim PTX: __cudaRegisterFunction _Z35strmm_r_up_tr_main_unit_fulltile_hw17cublasStrmmParams : 0x7f33c7d56790
GPGPU-Sim PTX: __cudaRegisterFunction _Z35strmm_r_lo_nt_main_unit_fulltile_hw17cublasStrmmParams : 0x7f33c7d567f0
GPGPU-Sim PTX: __cudaRegisterFunction _Z35strmm_r_up_nt_main_unit_fulltile_hw17cublasStrmmParams : 0x7f33c7d56850
GPGPU-Sim PTX: __cudaRegisterFunction _Z35strmm_l_lo_tr_main_unit_fulltile_hw17cublasStrmmParams : 0x7f33c7d568b0
GPGPU-Sim PTX: __cudaRegisterFunction _Z35strmm_l_up_tr_main_unit_fulltile_hw17cublasStrmmParams : 0x7f33c7d56910
GPGPU-Sim PTX: __cudaRegisterFunction _Z35strmm_l_lo_nt_main_unit_fulltile_hw17cublasStrmmParams : 0x7f33c7d56970
GPGPU-Sim PTX: __cudaRegisterFunction _Z35strmm_l_up_nt_main_unit_fulltile_hw17cublasStrmmParams : 0x7f33c7d569d0
GPGPU-Sim PTX: __cudaRegisterFunction _Z30strmm_r_lo_tr_main_fulltile_hw17cublasStrmmParams : 0x7f33c7d56a30
GPGPU-Sim PTX: __cudaRegisterFunction _Z30strmm_r_up_tr_main_fulltile_hw17cublasStrmmParams : 0x7f33c7d56a90
GPGPU-Sim PTX: __cudaRegisterFunction _Z30strmm_r_lo_nt_main_fulltile_hw17cublasStrmmParams : 0x7f33c7d56af0
GPGPU-Sim PTX: __cudaRegisterFunction _Z30strmm_r_up_nt_main_fulltile_hw17cublasStrmmParams : 0x7f33c7d56b50
GPGPU-Sim PTX: __cudaRegisterFunction _Z30strmm_l_lo_tr_main_fulltile_hw17cublasStrmmParams : 0x7f33c7d56bb0
GPGPU-Sim PTX: __cudaRegisterFunction _Z30strmm_l_up_tr_main_fulltile_hw17cublasStrmmParams : 0x7f33c7d56c10
GPGPU-Sim PTX: __cudaRegisterFunction _Z30strmm_l_lo_nt_main_fulltile_hw17cublasStrmmParams : 0x7f33c7d56c70
GPGPU-Sim PTX: __cudaRegisterFunction _Z30strmm_l_up_nt_main_fulltile_hw17cublasStrmmParams : 0x7f33c7d56cd0
GPGPU-Sim PTX: __cudaRegisterFunction _Z33strmm_r_lo_tr_main_unit_alpha0_hw17cublasStrmmParams : 0x7f33c7d56d30
GPGPU-Sim PTX: __cudaRegisterFunction _Z33strmm_r_up_tr_main_unit_alpha0_hw17cublasStrmmParams : 0x7f33c7d56d90
GPGPU-Sim PTX: __cudaRegisterFunction _Z33strmm_r_lo_nt_main_unit_alpha0_hw17cublasStrmmParams : 0x7f33c7d56df0
GPGPU-Sim PTX: __cudaRegisterFunction _Z33strmm_r_up_nt_main_unit_alpha0_hw17cublasStrmmParams : 0x7f33c7d56e50
GPGPU-Sim PTX: __cudaRegisterFunction _Z33strmm_l_lo_tr_main_unit_alpha0_hw17cublasStrmmParams : 0x7f33c7d56eb0
GPGPU-Sim PTX: __cudaRegisterFunction _Z33strmm_l_up_tr_main_unit_alpha0_hw17cublasStrmmParams : 0x7f33c7d56f10
GPGPU-Sim PTX: __cudaRegisterFunction _Z33strmm_l_lo_nt_main_unit_alpha0_hw17cublasStrmmParams : 0x7f33c7d56f70
GPGPU-Sim PTX: __cudaRegisterFunction _Z33strmm_l_up_nt_main_unit_alpha0_hw17cublasStrmmParams : 0x7f33c7d56fd0
GPGPU-Sim PTX: __cudaRegisterFunction _Z28strmm_r_lo_tr_main_alpha0_hw17cublasStrmmParams : 0x7f33c7d57030
GPGPU-Sim PTX: __cudaRegisterFunction _Z28strmm_r_up_tr_main_alpha0_hw17cublasStrmmParams : 0x7f33c7d57090
GPGPU-Sim PTX: __cudaRegisterFunction _Z28strmm_r_lo_nt_main_alpha0_hw17cublasStrmmParams : 0x7f33c7d570f0
GPGPU-Sim PTX: __cudaRegisterFunction _Z28strmm_r_up_nt_main_alpha0_hw17cublasStrmmParams : 0x7f33c7d57150
GPGPU-Sim PTX: __cudaRegisterFunction _Z28strmm_l_lo_tr_main_alpha0_hw17cublasStrmmParams : 0x7f33c7d571b0
GPGPU-Sim PTX: __cudaRegisterFunction _Z28strmm_l_up_tr_main_alpha0_hw17cublasStrmmParams : 0x7f33c7d57210
GPGPU-Sim PTX: __cudaRegisterFunction _Z28strmm_l_lo_nt_main_alpha0_hw17cublasStrmmParams : 0x7f33c7d57270
GPGPU-Sim PTX: __cudaRegisterFunction _Z28strmm_l_up_nt_main_alpha0_hw17cublasStrmmParams : 0x7f33c7d572d0
GPGPU-Sim PTX: __cudaRegisterFunction _Z26strmm_r_lo_tr_main_unit_hw17cublasStrmmParams : 0x7f33c7d57330
GPGPU-Sim PTX: __cudaRegisterFunction _Z26strmm_r_up_tr_main_unit_hw17cublasStrmmParams : 0x7f33c7d57390
GPGPU-Sim PTX: __cudaRegisterFunction _Z26strmm_r_lo_nt_main_unit_hw17cublasStrmmParams : 0x7f33c7d573f0
GPGPU-Sim PTX: __cudaRegisterFunction _Z26strmm_r_up_nt_main_unit_hw17cublasStrmmParams : 0x7f33c7d57450
GPGPU-Sim PTX: __cudaRegisterFunction _Z26strmm_l_lo_tr_main_unit_hw17cublasStrmmParams : 0x7f33c7d574b0
GPGPU-Sim PTX: __cudaRegisterFunction _Z26strmm_l_up_tr_main_unit_hw17cublasStrmmParams : 0x7f33c7d57510
GPGPU-Sim PTX: __cudaRegisterFunction _Z26strmm_l_lo_nt_main_unit_hw17cublasStrmmParams : 0x7f33c7d57570
GPGPU-Sim PTX: __cudaRegisterFunction _Z26strmm_l_up_nt_main_unit_hw17cublasStrmmParams : 0x7f33c7d575d0
GPGPU-Sim PTX: __cudaRegisterFunction _Z21strmm_r_lo_tr_main_hw17cublasStrmmParams : 0x7f33c7d57630
GPGPU-Sim PTX: __cudaRegisterFunction _Z21strmm_r_up_tr_main_hw17cublasStrmmParams : 0x7f33c7d57690
GPGPU-Sim PTX: __cudaRegisterFunction _Z21strmm_r_lo_nt_main_hw17cublasStrmmParams : 0x7f33c7d576f0
GPGPU-Sim PTX: __cudaRegisterFunction _Z21strmm_r_up_nt_main_hw17cublasStrmmParams : 0x7f33c7d57750
GPGPU-Sim PTX: __cudaRegisterFunction _Z21strmm_l_lo_tr_main_hw17cublasStrmmParams : 0x7f33c7d577b0
GPGPU-Sim PTX: __cudaRegisterFunction _Z21strmm_l_up_tr_main_hw17cublasStrmmParams : 0x7f33c7d57810
GPGPU-Sim PTX: __cudaRegisterFunction _Z21strmm_l_lo_nt_main_hw17cublasStrmmParams : 0x7f33c7d57870
GPGPU-Sim PTX: __cudaRegisterFunction _Z21strmm_l_up_nt_main_hw17cublasStrmmParams : 0x7f33c7d578d0
GPGPU-Sim PTX: __cudaRegisterFunction _Z42strmm_r_lo_tr_main_unit_alpha0_fulltile_sw17cublasStrmmParams : 0x7f33c7d57930
GPGPU-Sim PTX: __cudaRegisterFunction _Z42strmm_r_up_tr_main_unit_alpha0_fulltile_sw17cublasStrmmParams : 0x7f33c7d57990
[...]
46300000 instructions simulated : ctaid=(8,4,0) tid=(83,0,0)
46400000 instructions simulated : ctaid=(0,3,0) tid=(197,0,0)
cycles: 52000  inst.: 46439264 (ipc=893.1) sim_rate=110569 (inst/sec) elapsed = 0:0:07:00 / Wed May 25 11:28:31 2011
46500000 instructions simulated : ctaid=(1,4,0) tid=(421,0,0)
46600000 instructions simulated : ctaid=(2,5,0) tid=(87,0,0)
46700000 instructions simulated : ctaid=(8,3,0) tid=(189,0,0)
46800000 instructions simulated : ctaid=(0,2,0) tid=(181,0,0)
46900000 instructions simulated : ctaid=(1,5,0) tid=(169,0,0)
47000000 instructions simulated : ctaid=(5,5,0) tid=(355,0,0)
47100000 instructions simulated : ctaid=(5,3,0) tid=(35,0,0)
47200000 instructions simulated : ctaid=(7,4,0) tid=(195,0,0)
47300000 instructions simulated : ctaid=(6,4,0) tid=(393,0,0)
cycles: 53000  inst.: 47301404 (ipc=892.5) sim_rate=110517 (inst/sec) elapsed = 0:0:07:08 / Wed May 25 11:28:39 2011
47400000 instructions simulated : ctaid=(7,5,0) tid=(335,0,0)
47500000 instructions simulated : ctaid=(8,3,0) tid=(479,0,0)
47600000 instructions simulated : ctaid=(2,5,0) tid=(99,0,0)
47700000 instructions simulated : ctaid=(2,4,0) tid=(195,0,0)
47800000 instructions simulated : ctaid=(0,6,0) tid=(309,0,0)
47900000 instructions simulated : ctaid=(1,6,0) tid=(347,0,0)
48000000 instructions simulated : ctaid=(0,1,0) tid=(41,0,0)
48100000 instructions simulated : ctaid=(7,3,0) tid=(195,0,0)
cycles: 54000  inst.: 48167996 (ipc=892.0) sim_rate=110477 (inst/sec) elapsed = 0:0:07:16 / Wed May 25 11:28:47 2011
48200000 instructions simulated : ctaid=(0,5,0) tid=(451,0,0)
48300000 instructions simulated : ctaid=(6,5,0) tid=(461,0,0)
48400000 instructions simulated : ctaid=(2,5,0) tid=(485,0,0)
48500000 instructions simulated : ctaid=(3,5,0) tid=(51,0,0)
48600000 instructions simulated : ctaid=(1,4,0) tid=(247,0,0)
48700000 instructions simulated : ctaid=(3,5,0) tid=(393,0,0)
48800000 instructions simulated : ctaid=(3,3,0) tid=(73,0,0)
48900000 instructions simulated : ctaid=(1,4,0) tid=(221,0,0)
49000000 instructions simulated : ctaid=(2,6,0) tid=(315,0,0)
cycles: 55000  inst.: 49030676 (ipc=891.5) sim_rate=110678 (inst/sec) elapsed = 0:0:07:23 / Wed May 25 11:28:54 2011
49100000 instructions simulated : ctaid=(3,4,0) tid=(507,0,0)
49200000 instructions simulated : ctaid=(4,5,0) tid=(155,0,0)
49300000 instructions simulated : ctaid=(4,3,0) tid=(347,0,0)
49400000 instructions simulated : ctaid=(6,4,0) tid=(507,0,0)
49500000 instructions simulated : ctaid=(7,5,0) tid=(155,0,0)
49600000 instructions simulated : ctaid=(7,3,0) tid=(347,0,0)
49700000 instructions simulated : ctaid=(1,5,0) tid=(493,0,0)
49800000 instructions simulated : ctaid=(1,6,0) tid=(159,0,0)
cycles: 56000  inst.: 49885952 (ipc=890.8) sim_rate=110857 (inst/sec) elapsed = 0:0:07:30 / Wed May 25 11:29:01 2011
49900000 instructions simulated : ctaid=(7,4,0) tid=(187,0,0)
50000000 instructions simulated : ctaid=(0,6,0) tid=(161,0,0)
50100000 instructions simulated : ctaid=(0,2,0) tid=(143,0,0)
50200000 instructions simulated : ctaid=(2,5,0) tid=(261,0,0)
50300000 instructions simulated : ctaid=(5,4,0) tid=(423,0,0)
50400000 instructions simulated : ctaid=(6,5,0) tid=(71,0,0)
50500000 instructions simulated : ctaid=(6,3,0) tid=(263,0,0)
50600000 instructions simulated : ctaid=(0,1,0) tid=(129,0,0)
50700000 instructions simulated : ctaid=(3,5,0) tid=(359,0,0)
cycles: 57000  inst.: 50760090 (ipc=890.5) sim_rate=110829 (inst/sec) elapsed = 0:0:07:38 / Wed May 25 11:29:09 2011
Shader 18 finished CTA #0 (57025,0)
Shader 18 initializing CTA #0 with hw tids from 0 to 512 @(57026,0) shdr->not_completed = 0
Shader 9 finished CTA #0 (57027,0)
Shader 9 initializing CTA #0 with hw tids from 0 to 512 @(57028,0) shdr->not_completed = 0
Shader 27 finished CTA #0 (57028,0)
Shader 27 initializing CTA #0 with hw tids from 0 to 512 @(57029,0) shdr->not_completed = 0
50800000 instructions simulated : ctaid=(1,5,0) tid=(337,0,0)
50900000 instructions simulated : ctaid=(0,5,0) tid=(395,0,0)
51000000 instructions simulated : ctaid=(3,5,0) tid=(95,0,0)
51100000 instructions simulated : ctaid=(6,4,0) tid=(417,0,0)
51200000 instructions simulated : ctaid=(7,5,0) tid=(359,0,0)
51300000 instructions simulated : ctaid=(2,5,0) tid=(341,0,0)
51400000 instructions simulated : ctaid=(2,4,0) tid=(219,0,0)
51500000 instructions simulated : ctaid=(7,5,0) tid=(185,0,0)
51600000 instructions simulated : ctaid=(4,3,0) tid=(39,0,0)
cycles: 58000  inst.: 51680394 (ipc=891.0) sim_rate=111140 (inst/sec) elapsed = 0:0:07:45 / Wed May 25 11:29:16 2011
51700000 instructions simulated : ctaid=(7,5,0) tid=(335,0,0)
51800000 instructions simulated : ctaid=(4,4,0) tid=(291,0,0)
Shader 1 finished CTA #0 (58186,0)
Shader 2 finished CTA #0 (58186,0)
Shader 3 finished CTA #0 (58186,0)
Shader 4 finished CTA #0 (58186,0)
Shader 5 finished CTA #0 (58186,0)
Shader 6 finished CTA #0 (58186,0)
Shader 8 finished CTA #0 (58186,0)
Shader 1 initializing CTA #0 with hw tids from 0 to 512 @(58187,0) shdr->not_completed = 0
Shader 2 initializing CTA #0 with hw tids from 0 to 512 @(58187,0) shdr->not_completed = 0
Shader 3 initializing CTA #0 with hw tids from 0 to 512 @(58187,0) shdr->not_completed = 0
Shader 4 initializing CTA #0 with hw tids from 0 to 512 @(58187,0) shdr->not_completed = 0
Shader 5 initializing CTA #0 with hw tids from 0 to 512 @(58187,0) shdr->not_completed = 0
Shader 6 initializing CTA #0 with hw tids from 0 to 512 @(58187,0) shdr->not_completed = 0
Shader 8 initializing CTA #0 with hw tids from 0 to 512 @(58187,0) shdr->not_completed = 0
51900000 instructions simulated : ctaid=(2,6,0) tid=(273,0,0)
52000000 instructions simulated : ctaid=(3,4,0) tid=(247,0,0)
52100000 instructions simulated : ctaid=(1,6,0) tid=(175,0,0)
52200000 instructions simulated : ctaid=(0,7,0) tid=(447,0,0)
52300000 instructions simulated : ctaid=(8,5,0) tid=(491,0,0)
52400000 instructions simulated : ctaid=(2,7,0) tid=(305,0,0)
52500000 instructions simulated : ctaid=(3,6,0) tid=(9,0,0)
cycles: 59000  inst.: 52588238 (ipc=891.3) sim_rate=111180 (inst/sec) elapsed = 0:0:07:53 / Wed May 25 11:29:24 2011
52600000 instructions simulated : ctaid=(2,6,0) tid=(335,0,0)
52700000 instructions simulated : ctaid=(3,4,0) tid=(309,0,0)
52800000 instructions simulated : ctaid=(4,4,0) tid=(317,0,0)
52900000 instructions simulated : ctaid=(0,4,0) tid=(197,0,0)
53000000 instructions simulated : ctaid=(8,5,0) tid=(329,0,0)
53100000 instructions simulated : ctaid=(6,4,0) tid=(383,0,0)
53200000 instructions simulated : ctaid=(0,7,0) tid=(293,0,0)
53300000 instructions simulated : ctaid=(8,4,0) tid=(331,0,0)
53400000 instructions simulated : ctaid=(3,6,0) tid=(475,0,0)
cycles: 60000  inst.: 53481146 (ipc=891.4) sim_rate=111187 (inst/sec) elapsed = 0:0:08:01 / Wed May 25 11:29:32 2011
53500000 instructions simulated : ctaid=(2,7,0) tid=(223,0,0)
53600000 instructions simulated : ctaid=(8,5,0) tid=(355,0,0)
53700000 instructions simulated : ctaid=(6,4,0) tid=(409,0,0)
53800000 instructions simulated : ctaid=(6,6,0) tid=(285,0,0)
53900000 instructions simulated : ctaid=(3,5,0) tid=(435,0,0)
54000000 instructions simulated : ctaid=(4,6,0) tid=(9,0,0)
54100000 instructions simulated : ctaid=(5,6,0) tid=(493,0,0)
54200000 instructions simulated : ctaid=(8,4,0) tid=(497,0,0)
54300000 instructions simulated : ctaid=(0,4,0) tid=(263,0,0)
cycles: 61000  inst.: 54375554 (ipc=891.4) sim_rate=111197 (inst/sec) elapsed = 0:0:08:09 / Wed May 25 11:29:40 2011
54400000 instructions simulated : ctaid=(7,4,0) tid=(265,0,0)
54500000 instructions simulated : ctaid=(5,6,0) tid=(317,0,0)
54600000 instructions simulated : ctaid=(2,4,0) tid=(233,0,0)
54700000 instructions simulated : ctaid=(3,6,0) tid=(479,0,0)
54800000 instructions simulated : ctaid=(7,5,0) tid=(317,0,0)
54900000 instructions simulated : ctaid=(8,4,0) tid=(239,0,0)
55000000 instructions simulated : ctaid=(1,7,0) tid=(451,0,0)
55100000 instructions simulated : ctaid=(4,5,0) tid=(125,0,0)
55200000 instructions simulated : ctaid=(3,4,0) tid=(147,0,0)
cycles: 62000  inst.: 55272512 (ipc=891.5) sim_rate=110988 (inst/sec) elapsed = 0:0:08:18 / Wed May 25 11:29:49 2011
55300000 instructions simulated : ctaid=(1,6,0) tid=(151,0,0)
55400000 instructions simulated : ctaid=(5,5,0) tid=(169,0,0)
55500000 instructions simulated : ctaid=(8,6,0) tid=(495,0,0)
55600000 instructions simulated : ctaid=(8,6,0) tid=(481,0,0)
55700000 instructions simulated : ctaid=(4,5,0) tid=(151,0,0)
55800000 instructions simulated : ctaid=(3,4,0) tid=(173,0,0)
55900000 instructions simulated : ctaid=(4,6,0) tid=(211,0,0)
56000000 instructions simulated : ctaid=(3,5,0) tid=(89,0,0)
56100000 instructions simulated : ctaid=(1,6,0) tid=(89,0,0)
cycles: 63000  inst.: 56166428 (ipc=891.5) sim_rate=111220 (inst/sec) elapsed = 0:0:08:25 / Wed May 25 11:29:56 2011
56200000 instructions simulated : ctaid=(7,5,0) tid=(97,0,0)
56300000 instructions simulated : ctaid=(5,4,0) tid=(151,0,0)
56400000 instructions simulated : ctaid=(2,4,0) tid=(91,0,0)
56500000 instructions simulated : ctaid=(7,4,0) tid=(169,0,0)
56600000 instructions simulated : ctaid=(8,5,0) tid=(111,0,0)
56700000 instructions simulated : ctaid=(1,7,0) tid=(503,0,0)
56800000 instructions simulated : ctaid=(6,5,0) tid=(155,0,0)
56900000 instructions simulated : ctaid=(5,4,0) tid=(177,0,0)
57000000 instructions simulated : ctaid=(2,4,0) tid=(117,0,0)
cycles: 64000  inst.: 57056810 (ipc=891.5) sim_rate=111221 (inst/sec) elapsed = 0:0:08:33 / Wed May 25 11:30:04 2011
57100000 instructions simulated : ctaid=(2,5,0) tid=(203,0,0)
57200000 instructions simulated : ctaid=(3,7,0) tid=(65,0,0)
57300000 instructions simulated : ctaid=(8,5,0) tid=(243,0,0)
57400000 instructions simulated : ctaid=(7,4,0) tid=(265,0,0)
57500000 instructions simulated : ctaid=(7,6,0) tid=(141,0,0)
57600000 instructions simulated : ctaid=(4,4,0) tid=(165,0,0)
57700000 instructions simulated : ctaid=(0,6,0) tid=(227,0,0)
57800000 instructions simulated : ctaid=(7,4,0) tid=(89,0,0)
57900000 instructions simulated : ctaid=(1,5,0) tid=(119,0,0)
cycles: 65000  inst.: 57951878 (ipc=891.6) sim_rate=111232 (inst/sec) elapsed = 0:0:08:41 / Wed May 25 11:30:12 2011
58000000 instructions simulated : ctaid=(1,7,0) tid=(507,0,0)
58100000 instructions simulated : ctaid=(1,7,0) tid=(467,0,0)
58200000 instructions simulated : ctaid=(5,4,0) tid=(21,0,0)
58300000 instructions simulated : ctaid=(5,5,0) tid=(349,0,0)
58400000 instructions simulated : ctaid=(1,5,0) tid=(363,0,0)
58500000 instructions simulated : ctaid=(6,6,0) tid=(247,0,0)
58600000 instructions simulated : ctaid=(3,5,0) tid=(397,0,0)
58700000 instructions simulated : ctaid=(4,6,0) tid=(483,0,0)
58800000 instructions simulated : ctaid=(5,6,0) tid=(455,0,0)
cycles: 66000  inst.: 58850374 (ipc=891.7) sim_rate=111459 (inst/sec) elapsed = 0:0:08:48 / Wed May 25 11:30:19 2011
58900000 instructions simulated : ctaid=(6,5,0) tid=(385,0,0)
59000000 instructions simulated : ctaid=(0,7,0) tid=(327,0,0)
Shader 0 finished CTA #0 (66173,0)
Shader 0 initializing CTA #0 with hw tids from 0 to 512 @(66174,0) shdr->not_completed = 0
Shader 7 finished CTA #0 (66176,0)
Shader 7 initializing CTA #0 with hw tids from 0 to 512 @(66177,0) shdr->not_completed = 0
59100000 instructions simulated : ctaid=(8,5,0) tid=(319,0,0)
59200000 instructions simulated : ctaid=(1,5,0) tid=(195,0,0)
59300000 instructions simulated : ctaid=(6,5,0) tid=(83,0,0)
59400000 instructions simulated : ctaid=(8,5,0) tid=(25,0,0)
59500000 instructions simulated : ctaid=(7,4,0) tid=(483,0,0)
59600000 instructions simulated : ctaid=(8,5,0) tid=(425,0,0)
59700000 instructions simulated : ctaid=(5,7,0) tid=(33,0,0)
cycles: 67000  inst.: 59759378 (ipc=891.9) sim_rate=111491 (inst/sec) elapsed = 0:0:08:56 / Wed May 25 11:30:27 2011
59800000 instructions simulated : ctaid=(3,6,0) tid=(467,0,0)
59900000 instructions simulated : ctaid=(8,5,0) tid=(195,0,0)
60000000 instructions simulated : ctaid=(4,5,0) tid=(149,0,0)
60100000 instructions simulated : ctaid=(7,6,0) tid=(475,0,0)
60200000 instructions simulated : ctaid=(7,4,0) tid=(33,0,0)
60300000 instructions simulated : ctaid=(8,5,0) tid=(487,0,0)
60400000 instructions simulated : ctaid=(2,7,0) tid=(319,0,0)
60500000 instructions simulated : ctaid=(3,6,0) tid=(5,0,0)
60600000 instructions simulated : ctaid=(2,6,0) tid=(331,0,0)
cycles: 68000  inst.: 60667970 (ipc=892.2) sim_rate=111522 (inst/sec) elapsed = 0:0:09:04 / Wed May 25 11:30:35 2011
60700000 instructions simulated : ctaid=(3,4,0) tid=(305,0,0)
60800000 instructions simulated : ctaid=(4,5,0) tid=(247,0,0)
60900000 instructions simulated : ctaid=(8,6,0) tid=(463,0,0)
61000000 instructions simulated : ctaid=(3,7,0) tid=(277,0,0)
61100000 instructions simulated : ctaid=(1,5,0) tid=(345,0,0)
61200000 instructions simulated : ctaid=(5,4,0) tid=(309,0,0)
61300000 instructions simulated : ctaid=(6,5,0) tid=(251,0,0)
61400000 instructions simulated : ctaid=(1,7,0) tid=(51,0,0)
61500000 instructions simulated : ctaid=(4,7,0) tid=(431,0,0)
cycles: 69000  inst.: 61583786 (ipc=892.5) sim_rate=111564 (inst/sec) elapsed = 0:0:09:12 / Wed May 25 11:30:43 2011
61600000 instructions simulated : ctaid=(2,7,0) tid=(345,0,0)
61700000 instructions simulated : ctaid=(6,6,0) tid=(233,0,0)
61800000 instructions simulated : ctaid=(5,4,0) tid=(335,0,0)
61900000 instructions simulated : ctaid=(6,5,0) tid=(277,0,0)
62000000 instructions simulated : ctaid=(1,7,0) tid=(77,0,0)
62100000 instructions simulated : ctaid=(0,5,0) tid=(33,0,0)
62200000 instructions simulated : ctaid=(5,6,0) tid=(153,0,0)
62300000 instructions simulated : ctaid=(3,7,0) tid=(447,0,0)
62400000 instructions simulated : ctaid=(3,5,0) tid=(5,0,0)
cycles: 70000  inst.: 62492198 (ipc=892.7) sim_rate=111593 (inst/sec) elapsed = 0:0:09:20 / Wed May 25 11:30:51 2011
62500000 instructions simulated : ctaid=(5,4,0) tid=(473,0,0)
62600000 instructions simulated : ctaid=(2,5,0) tid=(347,0,0)
62700000 instructions simulated : ctaid=(2,5,0) tid=(255,0,0)
62800000 instructions simulated : ctaid=(7,6,0) tid=(61,0,0)
62900000 instructions simulated : ctaid=(2,5,0) tid=(143,0,0)
63000000 instructions simulated : ctaid=(4,7,0) tid=(373,0,0)
63100000 instructions simulated : ctaid=(6,4,0) tid=(37,0,0)
63200000 instructions simulated : ctaid=(4,5,0) tid=(459,0,0)
63300000 instructions simulated : ctaid=(8,4,0) tid=(361,0,0)
63400000 instructions simulated : ctaid=(5,6,0) tid=(321,0,0)
cycles: 71000  inst.: 63403718 (ipc=893.0) sim_rate=111626 (inst/sec) elapsed = 0:0:09:28 / Wed May 25 11:30:59 2011
63500000 instructions simulated : ctaid=(3,7,0) tid=(103,0,0)
63600000 instructions simulated : ctaid=(2,5,0) tid=(205,0,0)
63700000 instructions simulated : ctaid=(4,7,0) tid=(435,0,0)
63800000 instructions simulated : ctaid=(4,4,0) tid=(121,0,0)
63900000 instructions simulated : ctaid=(5,5,0) tid=(63,0,0)
64000000 instructions simulated : ctaid=(0,7,0) tid=(101,0,0)
64100000 instructions simulated : ctaid=(8,4,0) tid=(459,0,0)
64200000 instructions simulated : ctaid=(4,7,0) tid=(149,0,0)
64300000 instructions simulated : ctaid=(1,7,0) tid=(59,0,0)
cycles: 72000  inst.: 64314902 (ipc=893.3) sim_rate=111657 (inst/sec) elapsed = 0:0:09:36 / Wed May 25 11:31:07 2011
64400000 instructions simulated : ctaid=(4,4,0) tid=(45,0,0)
64500000 instructions simulated : ctaid=(5,5,0) tid=(499,0,0)
64600000 instructions simulated : ctaid=(3,6,0) tid=(65,0,0)
64700000 instructions simulated : ctaid=(2,6,0) tid=(391,0,0)
64800000 instructions simulated : ctaid=(3,4,0) tid=(365,0,0)
64900000 instructions simulated : ctaid=(8,6,0) tid=(109,0,0)
65000000 instructions simulated : ctaid=(7,5,0) tid=(93,0,0)
65100000 instructions simulated : ctaid=(2,7,0) tid=(405,0,0)
65200000 instructions simulated : ctaid=(1,5,0) tid=(507,0,0)
cycles: 73000  inst.: 65227550 (ipc=893.5) sim_rate=111691 (inst/sec) elapsed = 0:0:09:44 / Wed May 25 11:31:15 2011
65300000 instructions simulated : ctaid=(2,6,0) tid=(417,0,0)
65400000 instructions simulated : ctaid=(3,4,0) tid=(391,0,0)
65500000 instructions simulated : ctaid=(4,5,0) tid=(333,0,0)
65600000 instructions simulated : ctaid=(7,6,0) tid=(147,0,0)
65700000 instructions simulated : ctaid=(6,4,0) tid=(249,0,0)
65800000 instructions simulated : ctaid=(7,5,0) tid=(191,0,0)
65900000 instructions simulated : ctaid=(8,4,0) tid=(81,0,0)
66000000 instructions simulated : ctaid=(5,5,0) tid=(467,0,0)
66100000 instructions simulated : ctaid=(7,5,0) tid=(409,0,0)
cycles: 74000  inst.: 66137182 (ipc=893.7) sim_rate=111718 (inst/sec) elapsed = 0:0:09:52 / Wed May 25 11:31:23 2011
66200000 instructions simulated : ctaid=(6,4,0) tid=(355,0,0)
66300000 instructions simulated : ctaid=(7,5,0) tid=(297,0,0)
66400000 instructions simulated : ctaid=(2,7,0) tid=(97,0,0)
66500000 instructions simulated : ctaid=(1,5,0) tid=(211,0,0)
66600000 instructions simulated : ctaid=(7,5,0) tid=(67,0,0)
66700000 instructions simulated : ctaid=(3,5,0) tid=(21,0,0)
66800000 instructions simulated : ctaid=(6,6,0) tid=(347,0,0)
66900000 instructions simulated : ctaid=(6,4,0) tid=(417,0,0)
67000000 instructions simulated : ctaid=(7,5,0) tid=(359,0,0)
cycles: 75000  inst.: 67045466 (ipc=893.9) sim_rate=111742 (inst/sec) elapsed = 0:0:10:00 / Wed May 25 11:31:31 2011
67100000 instructions simulated : ctaid=(1,7,0) tid=(191,0,0)
67200000 instructions simulated : ctaid=(1,5,0) tid=(261,0,0)
67300000 instructions simulated : ctaid=(1,6,0) tid=(203,0,0)
67400000 instructions simulated : ctaid=(4,6,0) tid=(241,0,0)
67500000 instructions simulated : ctaid=(3,5,0) tid=(119,0,0)
67600000 instructions simulated : ctaid=(7,6,0) tid=(335,0,0)
67700000 instructions simulated : ctaid=(5,7,0) tid=(469,0,0)
67800000 instructions simulated : ctaid=(0,5,0) tid=(135,0,0)
67900000 instructions simulated : ctaid=(4,4,0) tid=(181,0,0)
cycles: 76000  inst.: 67958534 (ipc=894.2) sim_rate=111773 (inst/sec) elapsed = 0:0:10:08 / Wed May 25 11:31:39 2011
68000000 instructions simulated : ctaid=(5,5,0) tid=(123,0,0)
68100000 instructions simulated : ctaid=(0,7,0) tid=(225,0,0)
68200000 instructions simulated : ctaid=(2,6,0) tid=(15,0,0)
68300000 instructions simulated : ctaid=(1,7,0) tid=(217,0,0)
68400000 instructions simulated : ctaid=(4,7,0) tid=(9,0,0)
68500000 instructions simulated : ctaid=(4,4,0) tid=(207,0,0)
68600000 instructions simulated : ctaid=(5,5,0) tid=(149,0,0)
68700000 instructions simulated : ctaid=(8,6,0) tid=(475,0,0)
68800000 instructions simulated : ctaid=(8,4,0) tid=(33,0,0)
cycles: 77000  inst.: 68869298 (ipc=894.4) sim_rate=111800 (inst/sec) elapsed = 0:0:10:16 / Wed May 25 11:31:47 2011
68900000 instructions simulated : ctaid=(0,6,0) tid=(423,0,0)
69000000 instructions simulated : ctaid=(5,7,0) tid=(127,0,0)
69100000 instructions simulated : ctaid=(2,5,0) tid=(389,0,0)
69200000 instructions simulated : ctaid=(4,4,0) tid=(345,0,0)
69300000 instructions simulated : ctaid=(3,6,0) tid=(347,0,0)
69400000 instructions simulated : ctaid=(3,6,0) tid=(255,0,0)
69500000 instructions simulated : ctaid=(6,6,0) tid=(445,0,0)
69600000 instructions simulated : ctaid=(3,6,0) tid=(143,0,0)
69700000 instructions simulated : ctaid=(2,6,0) tid=(469,0,0)
cycles: 78000  inst.: 69778832 (ipc=894.6) sim_rate=111825 (inst/sec) elapsed = 0:0:10:24 / Wed May 25 11:31:55 2011
69800000 instructions simulated : ctaid=(5,4,0) tid=(421,0,0)
69900000 instructions simulated : ctaid=(3,5,0) tid=(331,0,0)
70000000 instructions simulated : ctaid=(7,4,0) tid=(233,0,0)
70100000 instructions simulated : ctaid=(8,5,0) tid=(175,0,0)
70200000 instructions simulated : ctaid=(5,7,0) tid=(295,0,0)
70300000 instructions simulated : ctaid=(3,6,0) tid=(205,0,0)
70400000 instructions simulated : ctaid=(2,6,0) tid=(19,0,0)
70500000 instructions simulated : ctaid=(3,4,0) tid=(505,0,0)
70600000 instructions simulated : ctaid=(4,5,0) tid=(447,0,0)
cycles: 79000  inst.: 70687214 (ipc=894.8) sim_rate=112024 (inst/sec) elapsed = 0:0:10:31 / Wed May 25 11:32:02 2011
70700000 instructions simulated : ctaid=(8,6,0) tid=(229,0,0)
70800000 instructions simulated : ctaid=(7,4,0) tid=(331,0,0)
