

        *** GPGPU-Sim version 2.1.1b (beta) ***


GPGPU-Sim PTX: __cudaRegisterFunction _Z10testKernelI8RGBA32_2EvPT_S2_i : 0x404e40
GPGPU-Sim PTX: __cudaRegisterFunction _Z10testKernelI6RGBA32EvPT_S2_i : 0x404e30
GPGPU-Sim PTX: __cudaRegisterFunction _Z10testKernelI5RGB32EvPT_S2_i : 0x404e20
GPGPU-Sim PTX: __cudaRegisterFunction _Z10testKernelI4LA32EvPT_S2_i : 0x404e10
GPGPU-Sim PTX: __cudaRegisterFunction _Z10testKernelIjEvPT_S1_i : 0x404e00
GPGPU-Sim PTX: __cudaRegisterFunction _Z10testKernelI5RGBA8EvPT_S2_i : 0x404df0
GPGPU-Sim PTX: __cudaRegisterFunction _Z10testKernelI17RGBA32_misalignedEvPT_S2_i : 0x404de0
GPGPU-Sim PTX: __cudaRegisterFunction _Z10testKernelI16RGB32_misalignedEvPT_S2_i : 0x404dd0
GPGPU-Sim PTX: __cudaRegisterFunction _Z10testKernelI15LA32_misalignedEvPT_S2_i : 0x404dc0
GPGPU-Sim PTX: __cudaRegisterFunction _Z10testKernelI16RGBA8_misalignedEvPT_S2_i : 0x404db0
GPGPU-Sim PTX: __cudaRegisterFunction _Z10testKernelItEvPT_S1_i : 0x404da0
GPGPU-Sim PTX: __cudaRegisterFunction _Z10testKernelIhEvPT_S1_i : 0x404d90
GPGPU-Sim PTX: simulation mode 0 (can change with PTX_SIM_MODE_FUNC environment variable:
               1=functional simulation only, 0=detailed performance simulator)
GPGPU-Sim: Configuration options:

-network_mode                           1 # Interconnection network mode
-inter_config_file                   mesh # Interconnection network config file
-save_embedded_ptx                      1 # saves ptx files embedded in binary as <n>.ptx
-gpgpu_simd_model                       1 # 0 = no recombination, 1 = post-dominator, 2 = MIMD, 3 = dynamic warp formation
-gpgpu_dram_scheduler                    1 # 0 = fifo (default), 1 = fast ideal
-gpgpu_max_cycle                        0 # terminates gpu simulation early (0 = no limit)
-gpgpu_max_insn                         0 # terminates gpu simulation early (0 = no limit)
-gpgpu_tex_cache:l1            512:64:2:L # per-shader L1 texture cache  (READ-ONLY) config, i.e., {<nsets>:<linesize>:<assoc>:<repl>|none}
-gpgpu_const_cache:l1            64:64:2:L # per-shader L1 constant memory cache  (READ-ONLY) config, i.e., {<nsets>:<linesize>:<assoc>:<repl>|none}
-gpgpu_no_dl1                           1 # no dl1 cache (voids -gpgpu_cache:dl1 option)
-gpgpu_cache:dl1               128:64:4:L # shader L1 data cache config, i.e., {<nsets>:<bsize>:<assoc>:<repl>|none}
-gpgpu_cache:dl2                     NULL # unified banked L2 data cache config, i.e., {<nsets>:<bsize>:<assoc>:<repl>|none}; disabled by default
-gpgpu_perfect_mem                      0 # enable perfect memory mode (no cache miss)
-gpgpu_shader_core_pipeline           1024:32:32 # shader core pipeline config, i.e., {<nthread>:<warpsize>:<pipe_simd_width>}
-gpgpu_shader_registers                16768 # Number of registers per shader core. Limits number of concurrent CTAs. (default 8192)
-gpgpu_shader_cta                       8 # Maximum number of concurrent CTAs in shader (default 8)
-gpgpu_n_shader                        28 # number of shaders in gpu
-gpgpu_n_mem                            8 # number of memory modules (e.g. memory controllers) in gpu
-gpgpu_n_mem_per_ctrlr                    2 # number of memory chips per memory controller
-gpgpu_runtime_stat               10000:0 # display runtime statistics such as dram utilization {<freq>:<flag>}
-gpgpu_dwf_heuristic                    0 # DWF scheduling heuristic: 0 = majority, 1 = minority, 2 = timestamp, 3 = pdom priority, 4 = pc-based, 5 = max-heap
-gpgpu_reg_bankconflict                    0 # Check for bank conflict in the pipeline
-gpgpu_dwf_regbk                        1 # Have dwf scheduler to avoid bank conflict
-gpgpu_memlatency_stat                    0 # track and display latency statistics 0x2 enables MC, 0x4 enables queue logs
-gpgpu_mshr_per_thread                    1 # Number of MSHRs per thread
-gpgpu_interwarp_mshr_merge                    6 # interwarp coalescing
-gpgpu_dram_sched_queue_size                   32 # 0 = unlimited (default); # entries per chip
-gpgpu_dram_buswidth                    4 # default = 4 bytes (8 bytes per cycle at DDR)
-gpgpu_dram_burst_length                    4 # Burst length of each DRAM request (default = 4 DDR cycle)
-gpgpu_dram_timing_opt 4:2:8:12:21:13:34:9:4:5 # DRAM timing parameters = {nbk:tCCD:tRRD:tRCD:tRAS:tRP:tRC:CL:WL:tWTR}
-gpgpu_mem_address_mask                    1 # 0 = old addressing mask, 1 = new addressing mask, 2 = new add. mask + flipped bank sel and chip sel bits
-gpgpu_flush_cache                      0 # Flush cache at the end of each kernel call
-gpgpu_l2_readoverwrite                    0 # Prioritize read requests over write requests for L2
-gpgpu_pre_mem_stages                    1 # default = 0 pre-memory pipeline stages
-gpgpu_no_divg_load                     0 # Don't allow divergence on load
-gpgpu_dwf_hw                        32:2 # dynamic warp formation hw config, i.e., {<#LUT_entries>:<associativity>|none}
-gpgpu_thread_swizzling                    0 # Thread Swizzling (1=on, 0=off)
-gpgpu_strict_simd_wrbk                    0 # Applying Strick SIMD WriteBack Stage (1=on, 0=off)
-gpgpu_shmem_size                   16384 # Size of shared memory per shader core (default 16kB)
-gpgpu_shmem_bkconflict                    1 # Turn on bank conflict check for shared memory
-gpgpu_shmem_pipe_speedup                    1 # Number of groups each warp is divided for shared memory bank conflict check
-gpgpu_L2_queue         0:0:0:0:0:0:10:10 # L2 data cache queue length and latency config
-gpgpu_cache_wt_through                    0 # L1 cache become write through (1=on, 0=off)
-gpgpu_deadlock_detect                    1 # Stop the simulation at deadlock (1=on (default), 0=off)
-gpgpu_cache_bkconflict                    1 # Turn on bank conflict check for L1 cache access
-gpgpu_n_cache_bank                     1 # Number of banks in L1 cache, also for memory coalescing stall
-gpgpu_warpdistro_shader                   -1 # Specify which shader core to collect the warp size distribution from
-gpgpu_pdom_sched_type                    8 # 0 = first ready warp found, 1 = random, 8 = loose round robin
-gpgpu_spread_blocks_across_cores                    1 # Spread block-issuing across all cores instead of filling up core by core
-gpgpu_cuda_sim                         1 # use PTX instruction set
-gpgpu_ptx_instruction_classification                    0 # if enabled will classify ptx instruction types per kernel (Max 255 kernels now)
-gpgpu_ptx_sim_mode                     0 # Select between Performance (default) or Functional simulation (1)
-gpgpu_clock_domains 500.0:2000.0:2000.0:2000.0 # Clock Domain Frequencies in MhZ {<Core Clock>:<ICNT Clock>:<L2 Clock>:<DRAM Clock>}
-gpgpu_shmem_port_per_bank                    2 # Number of access processed by a shared memory bank per cycle (default = 2)
-gpgpu_cache_port_per_bank                    2 # Number of access processed by a cache bank per cycle (default = 2)
-gpgpu_const_port_per_bank                    2 # Number of access processed by a constant cache bank per cycle (default = 2)
-gpgpu_cflog_interval                    0 # Interval between each snapshot in control flow logger
-gpgpu_partial_write_mask                    1 # use partial write mask to filter memory requests <1>No extra reads(use this!)<2>extra reads generated for partial chunks
-gpu_concentration                      1 # Number of shader cores per interconnection port (default = 1)
-gpgpu_local_mem_map                    1 # Mapping from local memory space address to simulated GPU physical address space (default = 1)
-pipetrace_out              pipetrace.txt # specifies file to output pipetrace to
-pipetrace                              1 # Turns pipetrace on/off
-gpgpu_mem_addr_mapping                 NULL # mapping memory address to dram model {dramid@<start bit>;<memory address map>}
-visualizer_enabled                     1 # Turn on visualizer output (1=On, 0=Off)
-visualizer_outputfile                 NULL # Specifies the output log file for visualizer
-visualizer_zlevel                      6 # Compression level of the visualizer output log (0=no comp, 9=highest)
-enable_ptx_file_line_stats                    1 # Turn on PTX source line statistic profiling. (1 = On)
-ptx_line_stats_filename gpgpu_inst_stats.txt # Output file for PTX source line statistics.
32 28 1024 917504
28672
addr_dec_mask[CHIP]  = 000000000000e000 	high:16 low:13
addr_dec_mask[BK]    = 0000000000001800 	high:13 low:11
addr_dec_mask[ROW]   = 000000003fff0000 	high:30 low:16
addr_dec_mask[COL]   = 00000000000007ff 	high:11 low:0
addr_dec_mask[BURST] = 000000000000000f 	high:4 low:0
*** Initializing Memory Statistics ***
nodemap
0 
1 2 4 5 6 8 
9 11 13 14 15 16 
17 18 19 20 21 22 
24 26 27 29 30 31 
33 34 35 3 7 10 
12 23 25 28 32 GPU performance model initialization complete.
GPGPU-Sim PTX: USING EMBEDDED .ptx files...
GPGPU-Sim PTX: parsing function _Z10testKernelIhEvPT_S1_i
GPGPU-Sim PTX: instruction assembly for function '_Z10testKernelIhEvPT_S1_i'...   done.
GPGPU-Sim PTX: Finding postdominators for '_Z10testKernelIhEvPT_S1_i'...
GPGPU-Sim PTX: Finding immediate postdominators for '_Z10testKernelIhEvPT_S1_i'...
GPGPU-Sim PTX: parsing function _Z10testKernelItEvPT_S1_i
GPGPU-Sim PTX: instruction assembly for function '_Z10testKernelItEvPT_S1_i'...   done.
GPGPU-Sim PTX: Finding postdominators for '_Z10testKernelItEvPT_S1_i'...
GPGPU-Sim PTX: Finding immediate postdominators for '_Z10testKernelItEvPT_S1_i'...
GPGPU-Sim PTX: parsing function _Z10testKernelI16RGBA8_misalignedEvPT_S2_i
GPGPU-Sim PTX: instruction assembly for function '_Z10testKernelI16RGBA8_misalignedEvPT_S2_i'...   done.
GPGPU-Sim PTX: Finding postdominators for '_Z10testKernelI16RGBA8_misalignedEvPT_S2_i'...
GPGPU-Sim PTX: Finding immediate postdominators for '_Z10testKernelI16RGBA8_misalignedEvPT_S2_i'...
GPGPU-Sim PTX: parsing function _Z10testKernelI15LA32_misalignedEvPT_S2_i
GPGPU-Sim PTX: instruction assembly for function '_Z10testKernelI15LA32_misalignedEvPT_S2_i'...   done.
GPGPU-Sim PTX: Finding postdominators for '_Z10testKernelI15LA32_misalignedEvPT_S2_i'...
GPGPU-Sim PTX: Finding immediate postdominators for '_Z10testKernelI15LA32_misalignedEvPT_S2_i'...
GPGPU-Sim PTX: parsing function _Z10testKernelI16RGB32_misalignedEvPT_S2_i
GPGPU-Sim PTX: instruction assembly for function '_Z10testKernelI16RGB32_misalignedEvPT_S2_i'...   done.
GPGPU-Sim PTX: Finding postdominators for '_Z10testKernelI16RGB32_misalignedEvPT_S2_i'...
GPGPU-Sim PTX: Finding immediate postdominators for '_Z10testKernelI16RGB32_misalignedEvPT_S2_i'...
GPGPU-Sim PTX: parsing function _Z10testKernelI17RGBA32_misalignedEvPT_S2_i
GPGPU-Sim PTX: instruction assembly for function '_Z10testKernelI17RGBA32_misalignedEvPT_S2_i'...   done.
GPGPU-Sim PTX: Finding postdominators for '_Z10testKernelI17RGBA32_misalignedEvPT_S2_i'...
GPGPU-Sim PTX: Finding immediate postdominators for '_Z10testKernelI17RGBA32_misalignedEvPT_S2_i'...
GPGPU-Sim PTX: parsing function _Z10testKernelI5RGBA8EvPT_S2_i
GPGPU-Sim PTX: instruction assembly for function '_Z10testKernelI5RGBA8EvPT_S2_i'...   done.
GPGPU-Sim PTX: Finding postdominators for '_Z10testKernelI5RGBA8EvPT_S2_i'...
GPGPU-Sim PTX: Finding immediate postdominators for '_Z10testKernelI5RGBA8EvPT_S2_i'...
GPGPU-Sim PTX: parsing function _Z10testKernelIjEvPT_S1_i
GPGPU-Sim PTX: instruction assembly for function '_Z10testKernelIjEvPT_S1_i'...   done.
GPGPU-Sim PTX: Finding postdominators for '_Z10testKernelIjEvPT_S1_i'...
GPGPU-Sim PTX: Finding immediate postdominators for '_Z10testKernelIjEvPT_S1_i'...
GPGPU-Sim PTX: parsing function _Z10testKernelI4LA32EvPT_S2_i
GPGPU-Sim PTX: instruction assembly for function '_Z10testKernelI4LA32EvPT_S2_i'...   done.
GPGPU-Sim PTX: Finding postdominators for '_Z10testKernelI4LA32EvPT_S2_i'...
GPGPU-Sim PTX: Finding immediate postdominators for '_Z10testKernelI4LA32EvPT_S2_i'...
GPGPU-Sim PTX: parsing function _Z10testKernelI5RGB32EvPT_S2_i
GPGPU-Sim PTX: instruction assembly for function '_Z10testKernelI5RGB32EvPT_S2_i'...   done.
GPGPU-Sim PTX: Finding postdominators for '_Z10testKernelI5RGB32EvPT_S2_i'...
GPGPU-Sim PTX: Finding immediate postdominators for '_Z10testKernelI5RGB32EvPT_S2_i'...
GPGPU-Sim PTX: parsing function _Z10testKernelI6RGBA32EvPT_S2_i
GPGPU-Sim PTX: instruction assembly for function '_Z10testKernelI6RGBA32EvPT_S2_i'...   done.
GPGPU-Sim PTX: Finding postdominators for '_Z10testKernelI6RGBA32EvPT_S2_i'...
GPGPU-Sim PTX: Finding immediate postdominators for '_Z10testKernelI6RGBA32EvPT_S2_i'...
GPGPU-Sim PTX: parsing function _Z10testKernelI8RGBA32_2EvPT_S2_i
GPGPU-Sim PTX: instruction assembly for function '_Z10testKernelI8RGBA32_2EvPT_S2_i'...   done.
GPGPU-Sim PTX: Finding postdominators for '_Z10testKernelI8RGBA32_2EvPT_S2_i'...
GPGPU-Sim PTX: Finding immediate postdominators for '_Z10testKernelI8RGBA32_2EvPT_S2_i'...
GPGPU-Sim PTX: finished parsing EMBEDDED .ptx file _1.ptx
GPGPU-Sim PTX: extracting embedded .ptx to temporary file "_ptx_Iyl1MF"
GPGPU-Sim PTX: generating ptxinfo using "ptxas -v _ptx2_FU4vc9 --output-file /dev/null 2> _ptx_Iyl1MFinfo"
GPGPU-Sim PTX: Kernel _Z10testKernelI8RGBA32_2EvPT_S2_i
GPGPU-Sim PTX: Kernel _Z10testKernelI6RGBA32EvPT_S2_i
GPGPU-Sim PTX: Kernel _Z10testKernelI5RGB32EvPT_S2_i
GPGPU-Sim PTX: Kernel _Z10testKernelI4LA32EvPT_S2_i
GPGPU-Sim PTX: Kernel _Z10testKernelIjEvPT_S1_i
GPGPU-Sim PTX: Kernel _Z10testKernelI5RGBA8EvPT_S2_i
GPGPU-Sim PTX: Kernel _Z10testKernelI17RGBA32_misalignedEvPT_S2_i
GPGPU-Sim PTX: Kernel _Z10testKernelI16RGB32_misalignedEvPT_S2_i
GPGPU-Sim PTX: Kernel _Z10testKernelI15LA32_misalignedEvPT_S2_i
GPGPU-Sim PTX: Kernel _Z10testKernelI16RGBA8_misalignedEvPT_S2_i
GPGPU-Sim PTX: Kernel _Z10testKernelItEvPT_S1_i
GPGPU-Sim PTX: Kernel _Z10testKernelIhEvPT_S1_i
GPGPU-Sim PTX: removing ptxinfo using "rm -f _ptx_Iyl1MF _ptx2_FU4vc9 _ptx_Iyl1MFinfo"
GPGPU-Sim PTX: loading global with explicit initializers...  done.
GPGPU-Sim PTX: loading constants with explicit initializers...  done.
GPGPU-Sim PTX: Program parsing completed (max 36 registers used per thread).
CUDA device has 28 Multi-Processors
SM scaling value = 1.00
> Memory Size = 49999872
Allocating memory...
GPGPU-Sim PTX: allocating 49999872 bytes on GPU starting at address 0x10000000
GPGPU-Sim PTX: cudaMallocing 49999872 bytes starting at 0x10000000..
GPGPU-Sim PTX: allocating 49999872 bytes on GPU starting at address 0x12faf000
GPGPU-Sim PTX: cudaMallocing 49999872 bytes starting at 0x12faf000..
Generating host input data array...
Uploading input data to GPU memory...
GPGPU-Sim PTX: cudaMemcpy(): devPtr = 0x10000000
GPGPU-Sim PTX: copying 49999872 bytes from CPU[0x7f85dc678010] to GPU[0x10000000] ...  done.
Testing misaligned types...
uint8...
GPGPU-Sim PTX: setting 49999872 bytes of memory to 0x0 starting at 0x12faf000...  done.



GPGPU-Sim PTX: cudaLaunch for 0x404d90 (mode=performance simulation)
GPGPU-Sim PTX: Launching kernel '_Z10testKernelIhEvPT_S1_i' gridDim= (64,1,1) blockDim = (256,1,1); ntuid=1
GPGPU-Sim uArch: clock freqs: 500000000.000000:2000000000.000000:2000000000.000000:2000000000.000000
GPGPU-Sim uArch: clock periods: 0.00000000200000000000:0.00000000050000000000:0.00000000050000000000:0.00000000050000000000
Reconvergence Pairs for _Z10testKernelIhEvPT_S1_i
9	25
24	25
CTA/core = 4, limited by: threads
Shader 0 initializing CTA #0 with hw tids from 0 to 256 @(1,0) shdr->not_completed = 0
Shader 1 initializing CTA #0 with hw tids from 0 to 256 @(1,0) shdr->not_completed = 0
Shader 2 initializing CTA #0 with hw tids from 0 to 256 @(1,0) shdr->not_completed = 0
Shader 3 initializing CTA #0 with hw tids from 0 to 256 @(1,0) shdr->not_completed = 0
Shader 4 initializing CTA #0 with hw tids from 0 to 256 @(1,0) shdr->not_completed = 0
Shader 5 initializing CTA #0 with hw tids from 0 to 256 @(1,0) shdr->not_completed = 0
Shader 6 initializing CTA #0 with hw tids from 0 to 256 @(1,0) shdr->not_completed = 0
Shader 7 initializing CTA #0 with hw tids from 0 to 256 @(1,0) shdr->not_completed = 0
Shader 8 initializing CTA #0 with hw tids from 0 to 256 @(1,0) shdr->not_completed = 0
Shader 9 initializing CTA #0 with hw tids from 0 to 256 @(1,0) shdr->not_completed = 0
Shader 10 initializing CTA #0 with hw tids from 0 to 256 @(1,0) shdr->not_completed = 0
Shader 11 initializing CTA #0 with hw tids from 0 to 256 @(1,0) shdr->not_completed = 0
Shader 12 initializing CTA #0 with hw tids from 0 to 256 @(1,0) shdr->not_completed = 0
Shader 13 initializing CTA #0 with hw tids from 0 to 256 @(1,0) shdr->not_completed = 0
Shader 14 initializing CTA #0 with hw tids from 0 to 256 @(1,0) shdr->not_completed = 0
Shader 15 initializing CTA #0 with hw tids from 0 to 256 @(1,0) shdr->not_completed = 0
Shader 16 initializing CTA #0 with hw tids from 0 to 256 @(1,0) shdr->not_completed = 0
Shader 17 initializing CTA #0 with hw tids from 0 to 256 @(1,0) shdr->not_completed = 0
Shader 18 initializing CTA #0 with hw tids from 0 to 256 @(1,0) shdr->not_completed = 0
Shader 19 initializing CTA #0 with hw tids from 0 to 256 @(1,0) shdr->not_completed = 0
Shader 20 initializing CTA #0 with hw tids from 0 to 256 @(1,0) shdr->not_completed = 0
Shader 21 initializing CTA #0 with hw tids from 0 to 256 @(1,0) shdr->not_completed = 0
Shader 22 initializing CTA #0 with hw tids from 0 to 256 @(1,0) shdr->not_completed = 0
Shader 23 initializing CTA #0 with hw tids from 0 to 256 @(1,0) shdr->not_completed = 0
Shader 24 initializing CTA #0 with hw tids from 0 to 256 @(1,0) shdr->not_completed = 0
Shader 25 initializing CTA #0 with hw tids from 0 to 256 @(1,0) shdr->not_completed = 0
Shader 26 initializing CTA #0 with hw tids from 0 to 256 @(1,0) shdr->not_completed = 0
Shader 27 initializing CTA #0 with hw tids from 0 to 256 @(1,0) shdr->not_completed = 0
Shader 0 initializing CTA #1 with hw tids from 256 to 512 @(2,0) shdr->not_completed = 256
Shader 1 initializing CTA #1 with hw tids from 256 to 512 @(2,0) shdr->not_completed = 256
Shader 2 initializing CTA #1 with hw tids from 256 to 512 @(2,0) shdr->not_completed = 256
Shader 3 initializing CTA #1 with hw tids from 256 to 512 @(2,0) shdr->not_completed = 256
Shader 4 initializing CTA #1 with hw tids from 256 to 512 @(2,0) shdr->not_completed = 256
Shader 5 initializing CTA #1 with hw tids from 256 to 512 @(2,0) shdr->not_completed = 256
Shader 6 initializing CTA #1 with hw tids from 256 to 512 @(2,0) shdr->not_completed = 256
Shader 7 initializing CTA #1 with hw tids from 256 to 512 @(2,0) shdr->not_completed = 256
Shader 8 initializing CTA #1 with hw tids from 256 to 512 @(2,0) shdr->not_completed = 256
Shader 9 initializing CTA #1 with hw tids from 256 to 512 @(2,0) shdr->not_completed = 256
Shader 10 initializing CTA #1 with hw tids from 256 to 512 @(2,0) shdr->not_completed = 256
Shader 11 initializing CTA #1 with hw tids from 256 to 512 @(2,0) shdr->not_completed = 256
Shader 12 initializing CTA #1 with hw tids from 256 to 512 @(2,0) shdr->not_completed = 256
Shader 13 initializing CTA #1 with hw tids from 256 to 512 @(2,0) shdr->not_completed = 256
Shader 14 initializing CTA #1 with hw tids from 256 to 512 @(2,0) shdr->not_completed = 256
Shader 15 initializing CTA #1 with hw tids from 256 to 512 @(2,0) shdr->not_completed = 256
Shader 16 initializing CTA #1 with hw tids from 256 to 512 @(2,0) shdr->not_completed = 256
Shader 17 initializing CTA #1 with hw tids from 256 to 512 @(2,0) shdr->not_completed = 256
Shader 18 initializing CTA #1 with hw tids from 256 to 512 @(2,0) shdr->not_completed = 256
Shader 19 initializing CTA #1 with hw tids from 256 to 512 @(2,0) shdr->not_completed = 256
Shader 20 initializing CTA #1 with hw tids from 256 to 512 @(2,0) shdr->not_completed = 256
Shader 21 initializing CTA #1 with hw tids from 256 to 512 @(2,0) shdr->not_completed = 256
Shader 22 initializing CTA #1 with hw tids from 256 to 512 @(2,0) shdr->not_completed = 256
Shader 23 initializing CTA #1 with hw tids from 256 to 512 @(2,0) shdr->not_completed = 256
Shader 24 initializing CTA #1 with hw tids from 256 to 512 @(2,0) shdr->not_completed = 256
Shader 25 initializing CTA #1 with hw tids from 256 to 512 @(2,0) shdr->not_completed = 256
Shader 26 initializing CTA #1 with hw tids from 256 to 512 @(2,0) shdr->not_completed = 256
Shader 27 initializing CTA #1 with hw tids from 256 to 512 @(2,0) shdr->not_completed = 256
Shader 0 initializing CTA #2 with hw tids from 512 to 768 @(3,0) shdr->not_completed = 512
Shader 1 initializing CTA #2 with hw tids from 512 to 768 @(3,0) shdr->not_completed = 512
Shader 2 initializing CTA #2 with hw tids from 512 to 768 @(3,0) shdr->not_completed = 512
Shader 3 initializing CTA #2 with hw tids from 512 to 768 @(3,0) shdr->not_completed = 512
Shader 4 initializing CTA #2 with hw tids from 512 to 768 @(3,0) shdr->not_completed = 512
Shader 5 initializing CTA #2 with hw tids from 512 to 768 @(3,0) shdr->not_completed = 512
Shader 6 initializing CTA #2 with hw tids from 512 to 768 @(3,0) shdr->not_completed = 512
Shader 7 initializing CTA #2 with hw tids from 512 to 768 @(3,0) shdr->not_completed = 512
100000 instructions simulated : ctaid=(16,0,0) tid=(31,0,0)
200000 instructions simulated : ctaid=(33,0,0) tid=(31,0,0)
300000 instructions simulated : ctaid=(56,0,0) tid=(255,0,0)
400000 instructions simulated : ctaid=(13,0,0) tid=(127,0,0)
500000 instructions simulated : ctaid=(43,0,0) tid=(191,0,0)
600000 instructions simulated : ctaid=(7,0,0) tid=(63,0,0)
700000 instructions simulated : ctaid=(36,0,0) tid=(95,0,0)
800000 instructions simulated : ctaid=(47,0,0) tid=(63,0,0)
900000 instructions simulated : ctaid=(51,0,0) tid=(191,0,0)
1000000 instructions simulated : ctaid=(13,0,0) tid=(63,0,0)
1100000 instructions simulated : ctaid=(38,0,0) tid=(31,0,0)
1200000 instructions simulated : ctaid=(40,0,0) tid=(223,0,0)
1300000 instructions simulated : ctaid=(28,0,0) tid=(127,0,0)
1400000 instructions simulated : ctaid=(8,0,0) tid=(159,0,0)
1500000 instructions simulated : ctaid=(17,0,0) tid=(63,0,0)
1600000 instructions simulated : ctaid=(48,0,0) tid=(255,0,0)
1700000 instructions simulated : ctaid=(36,0,0) tid=(127,0,0)
1800000 instructions simulated : ctaid=(45,0,0) tid=(191,0,0)
1900000 instructions simulated : ctaid=(58,0,0) tid=(223,0,0)
2000000 instructions simulated : ctaid=(25,0,0) tid=(223,0,0)
2100000 instructions simulated : ctaid=(37,0,0) tid=(223,0,0)
2200000 instructions simulated : ctaid=(55,0,0) tid=(191,0,0)
2300000 instructions simulated : ctaid=(11,0,0) tid=(95,0,0)
2400000 instructions simulated : ctaid=(9,0,0) tid=(191,0,0)
2500000 instructions simulated : ctaid=(44,0,0) tid=(31,0,0)
2600000 instructions simulated : ctaid=(54,0,0) tid=(223,0,0)
2700000 instructions simulated : ctaid=(35,0,0) tid=(31,0,0)
2800000 instructions simulated : ctaid=(42,0,0) tid=(127,0,0)
2900000 instructions simulated : ctaid=(20,0,0) tid=(127,0,0)
3000000 instructions simulated : ctaid=(10,0,0) tid=(31,0,0)
3100000 instructions simulated : ctaid=(53,0,0) tid=(127,0,0)
3200000 instructions simulated : ctaid=(5,0,0) tid=(223,0,0)
3300000 instructions simulated : ctaid=(15,0,0) tid=(95,0,0)
3400000 instructions simulated : ctaid=(45,0,0) tid=(63,0,0)
3500000 instructions simulated : ctaid=(58,0,0) tid=(223,0,0)
3600000 instructions simulated : ctaid=(0,0,0) tid=(223,0,0)
3700000 instructions simulated : ctaid=(52,0,0) tid=(223,0,0)
3800000 instructions simulated : ctaid=(46,0,0) tid=(223,0,0)
3900000 instructions simulated : ctaid=(9,0,0) tid=(191,0,0)
4000000 instructions simulated : ctaid=(13,0,0) tid=(31,0,0)
4100000 instructions simulated : ctaid=(56,0,0) tid=(31,0,0)
4200000 instructions simulated : ctaid=(55,0,0) tid=(31,0,0)
4300000 instructions simulated : ctaid=(8,0,0) tid=(255,0,0)
4400000 instructions simulated : ctaid=(60,0,0) tid=(127,0,0)
4500000 instructions simulated : ctaid=(39,0,0) tid=(191,0,0)
4600000 instructions simulated : ctaid=(37,0,0) tid=(63,0,0)
4700000 instructions simulated : ctaid=(8,0,0) tid=(127,0,0)
4800000 instructions simulated : ctaid=(35,0,0) tid=(95,0,0)
4900000 instructions simulated : ctaid=(28,0,0) tid=(191,0,0)
5000000 instructions simulated : ctaid=(49,0,0) tid=(255,0,0)
5100000 instructions simulated : ctaid=(19,0,0) tid=(159,0,0)
5200000 instructions simulated : ctaid=(8,0,0) tid=(159,0,0)
5300000 instructions simulated : ctaid=(56,0,0) tid=(159,0,0)
5400000 instructions simulated : ctaid=(24,0,0) tid=(63,0,0)
5500000 instructions simulated : ctaid=(41,0,0) tid=(31,0,0)
5600000 instructions simulated : ctaid=(24,0,0) tid=(31,0,0)
5700000 instructions simulated : ctaid=(27,0,0) tid=(63,0,0)
5800000 instructions simulated : ctaid=(15,0,0) tid=(127,0,0)
5900000 instructions simulated : ctaid=(4,0,0) tid=(127,0,0)
6000000 instructions simulated : ctaid=(30,0,0) tid=(255,0,0)
6100000 instructions simulated : ctaid=(25,0,0) tid=(31,0,0)
6200000 instructions simulated : ctaid=(20,0,0) tid=(223,0,0)
6300000 instructions simulated : ctaid=(48,0,0) tid=(159,0,0)
6400000 instructions simulated : ctaid=(5,0,0) tid=(255,0,0)
6500000 instructions simulated : ctaid=(45,0,0) tid=(159,0,0)
6600000 instructions simulated : ctaid=(38,0,0) tid=(159,0,0)
6700000 instructions simulated : ctaid=(31,0,0) tid=(223,0,0)
6800000 instructions simulated : ctaid=(31,0,0) tid=(255,0,0)
6900000 instructions simulated : ctaid=(10,0,0) tid=(255,0,0)
7000000 instructions simulated : ctaid=(32,0,0) tid=(63,0,0)
7100000 instructions simulated : ctaid=(57,0,0) tid=(159,0,0)
7200000 instructions simulated : ctaid=(62,0,0) tid=(63,0,0)
7300000 instructions simulated : ctaid=(48,0,0) tid=(159,0,0)
7400000 instructions simulated : ctaid=(15,0,0) tid=(63,0,0)
7500000 instructions simulated : ctaid=(24,0,0) tid=(95,0,0)
7600000 instructions simulated : ctaid=(48,0,0) tid=(63,0,0)
7700000 instructions simulated : ctaid=(43,0,0) tid=(191,0,0)
cycles: 10000  inst.: 7715424 (ipc=771.5) sim_rate=12880 (inst/sec) elapsed = 0:0:09:59 / Tue May 24 13:31:13 2011
7800000 instructions simulated : ctaid=(11,0,0) tid=(255,0,0)
7900000 instructions simulated : ctaid=(3,0,0) tid=(31,0,0)
8000000 instructions simulated : ctaid=(59,0,0) tid=(95,0,0)
8100000 instructions simulated : ctaid=(50,0,0) tid=(63,0,0)
8200000 instructions simulated : ctaid=(21,0,0) tid=(255,0,0)
8300000 instructions simulated : ctaid=(4,0,0) tid=(63,0,0)
8400000 instructions simulated : ctaid=(2,0,0) tid=(159,0,0)
8500000 instructions simulated : ctaid=(52,0,0) tid=(127,0,0)
8600000 instructions simulated : ctaid=(17,0,0) tid=(159,0,0)
8700000 instructions simulated : ctaid=(4,0,0) tid=(127,0,0)
8800000 instructions simulated : ctaid=(46,0,0) tid=(191,0,0)
8900000 instructions simulated : ctaid=(26,0,0) tid=(95,0,0)
9000000 instructions simulated : ctaid=(9,0,0) tid=(31,0,0)
9100000 instructions simulated : ctaid=(15,0,0) tid=(223,0,0)
9200000 instructions simulated : ctaid=(18,0,0) tid=(95,0,0)
9300000 instructions simulated : ctaid=(51,0,0) tid=(63,0,0)
9400000 instructions simulated : ctaid=(47,0,0) tid=(63,0,0)
9500000 instructions simulated : ctaid=(49,0,0) tid=(95,0,0)
9600000 instructions simulated : ctaid=(42,0,0) tid=(159,0,0)
9700000 instructions simulated : ctaid=(40,0,0) tid=(63,0,0)
9800000 instructions simulated : ctaid=(24,0,0) tid=(95,0,0)
9900000 instructions simulated : ctaid=(52,0,0) tid=(95,0,0)
10000000 instructions simulated : ctaid=(48,0,0) tid=(255,0,0)
10100000 instructions simulated : ctaid=(22,0,0) tid=(63,0,0)
10200000 instructions simulated : ctaid=(16,0,0) tid=(127,0,0)
10300000 instructions simulated : ctaid=(47,0,0) tid=(191,0,0)
10400000 instructions simulated : ctaid=(6,0,0) tid=(63,0,0)
10500000 instructions simulated : ctaid=(31,0,0) tid=(255,0,0)
10600000 instructions simulated : ctaid=(27,0,0) tid=(223,0,0)
10700000 instructions simulated : ctaid=(9,0,0) tid=(223,0,0)
10800000 instructions simulated : ctaid=(4,0,0) tid=(31,0,0)
10900000 instructions simulated : ctaid=(5,0,0) tid=(127,0,0)
11000000 instructions simulated : ctaid=(35,0,0) tid=(159,0,0)
11100000 instructions simulated : ctaid=(19,0,0) tid=(127,0,0)
11200000 instructions simulated : ctaid=(50,0,0) tid=(63,0,0)
11300000 instructions simulated : ctaid=(45,0,0) tid=(31,0,0)
11400000 instructions simulated : ctaid=(21,0,0) tid=(31,0,0)
11500000 instructions simulated : ctaid=(38,0,0) tid=(127,0,0)
11600000 instructions simulated : ctaid=(2,0,0) tid=(191,0,0)
11700000 instructions simulated : ctaid=(13,0,0) tid=(255,0,0)
11800000 instructions simulated : ctaid=(63,0,0) tid=(255,0,0)
11900000 instructions simulated : ctaid=(50,0,0) tid=(159,0,0)
12000000 instructions simulated : ctaid=(20,0,0) tid=(63,0,0)
12100000 instructions simulated : ctaid=(39,0,0) tid=(63,0,0)
12200000 instructions simulated : ctaid=(49,0,0) tid=(95,0,0)
12300000 instructions simulated : ctaid=(36,0,0) tid=(31,0,0)
12400000 instructions simulated : ctaid=(45,0,0) tid=(127,0,0)
12500000 instructions simulated : ctaid=(54,0,0) tid=(63,0,0)
12600000 instructions simulated : ctaid=(44,0,0) tid=(63,0,0)
12700000 instructions simulated : ctaid=(39,0,0) tid=(95,0,0)
12800000 instructions simulated : ctaid=(16,0,0) tid=(127,0,0)
12900000 instructions simulated : ctaid=(60,0,0) tid=(159,0,0)
13000000 instructions simulated : ctaid=(19,0,0) tid=(223,0,0)
13100000 instructions simulated : ctaid=(31,0,0) tid=(63,0,0)
13200000 instructions simulated : ctaid=(63,0,0) tid=(223,0,0)
13300000 instructions simulated : ctaid=(19,0,0) tid=(31,0,0)
13400000 instructions simulated : ctaid=(30,0,0) tid=(159,0,0)
13500000 instructions simulated : ctaid=(32,0,0) tid=(127,0,0)
13600000 instructions simulated : ctaid=(27,0,0) tid=(191,0,0)
13700000 instructions simulated : ctaid=(6,0,0) tid=(223,0,0)
13800000 instructions simulated : ctaid=(21,0,0) tid=(95,0,0)
13900000 instructions simulated : ctaid=(17,0,0) tid=(63,0,0)
14000000 instructions simulated : ctaid=(13,0,0) tid=(31,0,0)
14100000 instructions simulated : ctaid=(59,0,0) tid=(127,0,0)
14200000 instructions simulated : ctaid=(27,0,0) tid=(63,0,0)
14300000 instructions simulated : ctaid=(56,0,0) tid=(63,0,0)
14400000 instructions simulated : ctaid=(27,0,0) tid=(223,0,0)
14500000 instructions simulated : ctaid=(22,0,0) tid=(191,0,0)
14600000 instructions simulated : ctaid=(43,0,0) tid=(63,0,0)
14700000 instructions simulated : ctaid=(63,0,0) tid=(159,0,0)
14800000 instructions simulated : ctaid=(36,0,0) tid=(159,0,0)
14900000 instructions simulated : ctaid=(20,0,0) tid=(159,0,0)
15000000 instructions simulated : ctaid=(48,0,0) tid=(127,0,0)
15100000 instructions simulated : ctaid=(62,0,0) tid=(223,0,0)
15200000 instructions simulated : ctaid=(59,0,0) tid=(127,0,0)
15300000 instructions simulated : ctaid=(16,0,0) tid=(223,0,0)
15400000 instructions simulated : ctaid=(48,0,0) tid=(95,0,0)
15500000 instructions simulated : ctaid=(39,0,0) tid=(159,0,0)
15600000 instructions simulated : ctaid=(36,0,0) tid=(159,0,0)
cycles: 20000  inst.: 15598560 (ipc=779.9) sim_rate=12017 (inst/sec) elapsed = 0:0:21:38 / Tue May 24 13:42:52 2011
15700000 instructions simulated : ctaid=(37,0,0) tid=(63,0,0)
15800000 instructions simulated : ctaid=(0,0,0) tid=(63,0,0)
15900000 instructions simulated : ctaid=(44,0,0) tid=(255,0,0)
16000000 instructions simulated : ctaid=(38,0,0) tid=(63,0,0)
16100000 instructions simulated : ctaid=(47,0,0) tid=(159,0,0)
16200000 instructions simulated : ctaid=(17,0,0) tid=(255,0,0)
16300000 instructions simulated : ctaid=(28,0,0) tid=(127,0,0)
16400000 instructions simulated : ctaid=(18,0,0) tid=(31,0,0)
16500000 instructions simulated : ctaid=(12,0,0) tid=(95,0,0)
16600000 instructions simulated : ctaid=(3,0,0) tid=(255,0,0)
16700000 instructions simulated : ctaid=(30,0,0) tid=(95,0,0)
16800000 instructions simulated : ctaid=(27,0,0) tid=(63,0,0)
16900000 instructions simulated : ctaid=(26,0,0) tid=(31,0,0)
17000000 instructions simulated : ctaid=(52,0,0) tid=(255,0,0)
17100000 instructions simulated : ctaid=(26,0,0) tid=(127,0,0)
17200000 instructions simulated : ctaid=(27,0,0) tid=(31,0,0)
17300000 instructions simulated : ctaid=(56,0,0) tid=(95,0,0)
17400000 instructions simulated : ctaid=(52,0,0) tid=(127,0,0)
17500000 instructions simulated : ctaid=(60,0,0) tid=(223,0,0)
17600000 instructions simulated : ctaid=(43,0,0) tid=(191,0,0)
17700000 instructions simulated : ctaid=(58,0,0) tid=(127,0,0)
17800000 instructions simulated : ctaid=(40,0,0) tid=(223,0,0)
17900000 instructions simulated : ctaid=(25,0,0) tid=(95,0,0)
18000000 instructions simulated : ctaid=(43,0,0) tid=(255,0,0)
18100000 instructions simulated : ctaid=(46,0,0) tid=(31,0,0)
18200000 instructions simulated : ctaid=(51,0,0) tid=(223,0,0)
18300000 instructions simulated : ctaid=(43,0,0) tid=(31,0,0)
18400000 instructions simulated : ctaid=(13,0,0) tid=(95,0,0)
18500000 instructions simulated : ctaid=(17,0,0) tid=(95,0,0)
18600000 instructions simulated : ctaid=(10,0,0) tid=(255,0,0)
18700000 instructions simulated : ctaid=(46,0,0) tid=(223,0,0)
18800000 instructions simulated : ctaid=(57,0,0) tid=(191,0,0)
18900000 instructions simulated : ctaid=(36,0,0) tid=(159,0,0)
19000000 instructions simulated : ctaid=(53,0,0) tid=(95,0,0)
19100000 instructions simulated : ctaid=(20,0,0) tid=(223,0,0)
19200000 instructions simulated : ctaid=(17,0,0) tid=(255,0,0)
19300000 instructions simulated : ctaid=(54,0,0) tid=(31,0,0)
19400000 instructions simulated : ctaid=(41,0,0) tid=(127,0,0)
19500000 instructions simulated : ctaid=(55,0,0) tid=(31,0,0)
19600000 instructions simulated : ctaid=(14,0,0) tid=(159,0,0)
19700000 instructions simulated : ctaid=(5,0,0) tid=(159,0,0)
19800000 instructions simulated : ctaid=(41,0,0) tid=(191,0,0)
19900000 instructions simulated : ctaid=(47,0,0) tid=(255,0,0)
20000000 instructions simulated : ctaid=(36,0,0) tid=(95,0,0)
20100000 instructions simulated : ctaid=(35,0,0) tid=(255,0,0)
20200000 instructions simulated : ctaid=(31,0,0) tid=(159,0,0)
20300000 instructions simulated : ctaid=(63,0,0) tid=(127,0,0)
20400000 instructions simulated : ctaid=(28,0,0) tid=(159,0,0)
20500000 instructions simulated : ctaid=(0,0,0) tid=(191,0,0)
20600000 instructions simulated : ctaid=(55,0,0) tid=(159,0,0)
20700000 instructions simulated : ctaid=(3,0,0) tid=(223,0,0)
20800000 instructions simulated : ctaid=(31,0,0) tid=(63,0,0)
20900000 instructions simulated : ctaid=(33,0,0) tid=(159,0,0)
21000000 instructions simulated : ctaid=(45,0,0) tid=(255,0,0)
21100000 instructions simulated : ctaid=(39,0,0) tid=(31,0,0)
21200000 instructions simulated : ctaid=(33,0,0) tid=(223,0,0)
21300000 instructions simulated : ctaid=(16,0,0) tid=(63,0,0)
21400000 instructions simulated : ctaid=(51,0,0) tid=(63,0,0)
21500000 instructions simulated : ctaid=(7,0,0) tid=(95,0,0)
21600000 instructions simulated : ctaid=(18,0,0) tid=(223,0,0)
21700000 instructions simulated : ctaid=(27,0,0) tid=(191,0,0)
21800000 instructions simulated : ctaid=(62,0,0) tid=(255,0,0)
21900000 instructions simulated : ctaid=(12,0,0) tid=(223,0,0)
22000000 instructions simulated : ctaid=(12,0,0) tid=(255,0,0)
22100000 instructions simulated : ctaid=(16,0,0) tid=(127,0,0)
22200000 instructions simulated : ctaid=(42,0,0) tid=(63,0,0)
22300000 instructions simulated : ctaid=(50,0,0) tid=(159,0,0)
22400000 instructions simulated : ctaid=(51,0,0) tid=(63,0,0)
22500000 instructions simulated : ctaid=(20,0,0) tid=(191,0,0)
22600000 instructions simulated : ctaid=(22,0,0) tid=(159,0,0)
22700000 instructions simulated : ctaid=(43,0,0) tid=(223,0,0)
22800000 instructions simulated : ctaid=(54,0,0) tid=(63,0,0)
22900000 instructions simulated : ctaid=(57,0,0) tid=(255,0,0)
23000000 instructions simulated : ctaid=(26,0,0) tid=(63,0,0)
23100000 instructions simulated : ctaid=(52,0,0) tid=(223,0,0)
23200000 instructions simulated : ctaid=(42,0,0) tid=(159,0,0)
23300000 instructions simulated : ctaid=(42,0,0) tid=(127,0,0)
23400000 instructions simulated : ctaid=(16,0,0) tid=(127,0,0)
cycles: 30000  inst.: 23479520 (ipc=782.7) sim_rate=11888 (inst/sec) elapsed = 0:0:32:55 / Tue May 24 13:54:09 2011
23500000 instructions simulated : ctaid=(11,0,0) tid=(191,0,0)
23600000 instructions simulated : ctaid=(55,0,0) tid=(127,0,0)
23700000 instructions simulated : ctaid=(38,0,0) tid=(223,0,0)
23800000 instructions simulated : ctaid=(8,0,0) tid=(127,0,0)
23900000 instructions simulated : ctaid=(43,0,0) tid=(63,0,0)
24000000 instructions simulated : ctaid=(39,0,0) tid=(255,0,0)
24100000 instructions simulated : ctaid=(9,0,0) tid=(63,0,0)
24200000 instructions simulated : ctaid=(27,0,0) tid=(95,0,0)
24300000 instructions simulated : ctaid=(16,0,0) tid=(63,0,0)
24400000 instructions simulated : ctaid=(35,0,0) tid=(31,0,0)
24500000 instructions simulated : ctaid=(57,0,0) tid=(63,0,0)
24600000 instructions simulated : ctaid=(50,0,0) tid=(191,0,0)
24700000 instructions simulated : ctaid=(8,0,0) tid=(191,0,0)
24800000 instructions simulated : ctaid=(16,0,0) tid=(95,0,0)
24900000 instructions simulated : ctaid=(36,0,0) tid=(255,0,0)
25000000 instructions simulated : ctaid=(57,0,0) tid=(255,0,0)
25100000 instructions simulated : ctaid=(42,0,0) tid=(127,0,0)
25200000 instructions simulated : ctaid=(2,0,0) tid=(63,0,0)
25300000 instructions simulated : ctaid=(12,0,0) tid=(255,0,0)
25400000 instructions simulated : ctaid=(28,0,0) tid=(191,0,0)
25500000 instructions simulated : ctaid=(55,0,0) tid=(63,0,0)
25600000 instructions simulated : ctaid=(37,0,0) tid=(127,0,0)
25700000 instructions simulated : ctaid=(29,0,0) tid=(63,0,0)
25800000 instructions simulated : ctaid=(8,0,0) tid=(191,0,0)
25900000 instructions simulated : ctaid=(24,0,0) tid=(31,0,0)
26000000 instructions simulated : ctaid=(59,0,0) tid=(223,0,0)
26100000 instructions simulated : ctaid=(46,0,0) tid=(127,0,0)
26200000 instructions simulated : ctaid=(46,0,0) tid=(63,0,0)
26300000 instructions simulated : ctaid=(59,0,0) tid=(127,0,0)
26400000 instructions simulated : ctaid=(12,0,0) tid=(127,0,0)
26500000 instructions simulated : ctaid=(13,0,0) tid=(31,0,0)
26600000 instructions simulated : ctaid=(59,0,0) tid=(31,0,0)
26700000 instructions simulated : ctaid=(52,0,0) tid=(255,0,0)
26800000 instructions simulated : ctaid=(17,0,0) tid=(31,0,0)
26900000 instructions simulated : ctaid=(25,0,0) tid=(31,0,0)
27000000 instructions simulated : ctaid=(56,0,0) tid=(191,0,0)
27100000 instructions simulated : ctaid=(25,0,0) tid=(127,0,0)
27200000 instructions simulated : ctaid=(40,0,0) tid=(223,0,0)
27300000 instructions simulated : ctaid=(4,0,0) tid=(191,0,0)
27400000 instructions simulated : ctaid=(38,0,0) tid=(63,0,0)
27500000 instructions simulated : ctaid=(17,0,0) tid=(191,0,0)
27600000 instructions simulated : ctaid=(39,0,0) tid=(223,0,0)
27700000 instructions simulated : ctaid=(23,0,0) tid=(63,0,0)
27800000 instructions simulated : ctaid=(39,0,0) tid=(255,0,0)
27900000 instructions simulated : ctaid=(52,0,0) tid=(31,0,0)
28000000 instructions simulated : ctaid=(12,0,0) tid=(191,0,0)
28100000 instructions simulated : ctaid=(25,0,0) tid=(223,0,0)
28200000 instructions simulated : ctaid=(50,0,0) tid=(255,0,0)
28300000 instructions simulated : ctaid=(53,0,0) tid=(127,0,0)
28400000 instructions simulated : ctaid=(16,0,0) tid=(127,0,0)
28500000 instructions simulated : ctaid=(31,0,0) tid=(255,0,0)
28600000 instructions simulated : ctaid=(53,0,0) tid=(95,0,0)
28700000 instructions simulated : ctaid=(41,0,0) tid=(63,0,0)
28800000 instructions simulated : ctaid=(39,0,0) tid=(159,0,0)
28900000 instructions simulated : ctaid=(50,0,0) tid=(191,0,0)
29000000 instructions simulated : ctaid=(54,0,0) tid=(31,0,0)
29100000 instructions simulated : ctaid=(16,0,0) tid=(223,0,0)
29200000 instructions simulated : ctaid=(56,0,0) tid=(223,0,0)
29300000 instructions simulated : ctaid=(52,0,0) tid=(63,0,0)
29400000 instructions simulated : ctaid=(14,0,0) tid=(127,0,0)
29500000 instructions simulated : ctaid=(29,0,0) tid=(127,0,0)
29600000 instructions simulated : ctaid=(39,0,0) tid=(223,0,0)
29700000 instructions simulated : ctaid=(46,0,0) tid=(159,0,0)
29800000 instructions simulated : ctaid=(6,0,0) tid=(255,0,0)
29900000 instructions simulated : ctaid=(56,0,0) tid=(191,0,0)
30000000 instructions simulated : ctaid=(43,0,0) tid=(191,0,0)
30100000 instructions simulated : ctaid=(6,0,0) tid=(191,0,0)
30200000 instructions simulated : ctaid=(18,0,0) tid=(191,0,0)
30300000 instructions simulated : ctaid=(26,0,0) tid=(127,0,0)
30400000 instructions simulated : ctaid=(42,0,0) tid=(159,0,0)
30500000 instructions simulated : ctaid=(55,0,0) tid=(191,0,0)
30600000 instructions simulated : ctaid=(26,0,0) tid=(223,0,0)
30700000 instructions simulated : ctaid=(48,0,0) tid=(159,0,0)
30800000 instructions simulated : ctaid=(48,0,0) tid=(63,0,0)
30900000 instructions simulated : ctaid=(9,0,0) tid=(159,0,0)
31000000 instructions simulated : ctaid=(40,0,0) tid=(223,0,0)
31100000 instructions simulated : ctaid=(22,0,0) tid=(255,0,0)
31200000 instructions simulated : ctaid=(1,0,0) tid=(159,0,0)
31300000 instructions simulated : ctaid=(8,0,0) tid=(127,0,0)
cycles: 40000  inst.: 31354080 (ipc=783.9) sim_rate=11890 (inst/sec) elapsed = 0:0:43:57 / Tue May 24 14:05:11 2011
31400000 instructions simulated : ctaid=(23,0,0) tid=(31,0,0)
31500000 instructions simulated : ctaid=(37,0,0) tid=(191,0,0)
31600000 instructions simulated : ctaid=(51,0,0) tid=(255,0,0)
31700000 instructions simulated : ctaid=(10,0,0) tid=(127,0,0)
31800000 instructions simulated : ctaid=(31,0,0) tid=(95,0,0)
31900000 instructions simulated : ctaid=(44,0,0) tid=(255,0,0)
32000000 instructions simulated : ctaid=(53,0,0) tid=(95,0,0)
32100000 instructions simulated : ctaid=(8,0,0) tid=(223,0,0)
32200000 instructions simulated : ctaid=(45,0,0) tid=(255,0,0)
32300000 instructions simulated : ctaid=(33,0,0) tid=(223,0,0)
32400000 instructions simulated : ctaid=(28,0,0) tid=(63,0,0)
32500000 instructions simulated : ctaid=(16,0,0) tid=(255,0,0)
32600000 instructions simulated : ctaid=(52,0,0) tid=(255,0,0)
32700000 instructions simulated : ctaid=(48,0,0) tid=(127,0,0)
32800000 instructions simulated : ctaid=(8,0,0) tid=(223,0,0)
32900000 instructions simulated : ctaid=(41,0,0) tid=(255,0,0)
33000000 instructions simulated : ctaid=(4,0,0) tid=(223,0,0)
33100000 instructions simulated : ctaid=(45,0,0) tid=(159,0,0)
33200000 instructions simulated : ctaid=(23,0,0) tid=(31,0,0)
33300000 instructions simulated : ctaid=(62,0,0) tid=(31,0,0)
33400000 instructions simulated : ctaid=(44,0,0) tid=(223,0,0)
33500000 instructions simulated : ctaid=(19,0,0) tid=(159,0,0)
33600000 instructions simulated : ctaid=(50,0,0) tid=(223,0,0)
33700000 instructions simulated : ctaid=(36,0,0) tid=(159,0,0)
33800000 instructions simulated : ctaid=(41,0,0) tid=(63,0,0)
33900000 instructions simulated : ctaid=(39,0,0) tid=(223,0,0)
34000000 instructions simulated : ctaid=(2,0,0) tid=(95,0,0)
34100000 instructions simulated : ctaid=(45,0,0) tid=(255,0,0)
34200000 instructions simulated : ctaid=(12,0,0) tid=(95,0,0)
34300000 instructions simulated : ctaid=(51,0,0) tid=(95,0,0)
34400000 instructions simulated : ctaid=(50,0,0) tid=(95,0,0)
34500000 instructions simulated : ctaid=(21,0,0) tid=(31,0,0)
34600000 instructions simulated : ctaid=(50,0,0) tid=(255,0,0)
34700000 instructions simulated : ctaid=(48,0,0) tid=(95,0,0)
34800000 instructions simulated : ctaid=(5,0,0) tid=(31,0,0)
34900000 instructions simulated : ctaid=(15,0,0) tid=(31,0,0)
35000000 instructions simulated : ctaid=(15,0,0) tid=(31,0,0)
35100000 instructions simulated : ctaid=(29,0,0) tid=(159,0,0)
35200000 instructions simulated : ctaid=(16,0,0) tid=(255,0,0)
35300000 instructions simulated : ctaid=(14,0,0) tid=(191,0,0)
35400000 instructions simulated : ctaid=(2,0,0) tid=(127,0,0)
35500000 instructions simulated : ctaid=(44,0,0) tid=(127,0,0)
35600000 instructions simulated : ctaid=(15,0,0) tid=(63,0,0)
35700000 instructions simulated : ctaid=(22,0,0) tid=(63,0,0)
35800000 instructions simulated : ctaid=(39,0,0) tid=(159,0,0)
35900000 instructions simulated : ctaid=(21,0,0) tid=(31,0,0)
36000000 instructions simulated : ctaid=(23,0,0) tid=(159,0,0)
36100000 instructions simulated : ctaid=(55,0,0) tid=(191,0,0)
36200000 instructions simulated : ctaid=(53,0,0) tid=(191,0,0)
36300000 instructions simulated : ctaid=(15,0,0) tid=(159,0,0)
36400000 instructions simulated : ctaid=(38,0,0) tid=(191,0,0)
36500000 instructions simulated : ctaid=(41,0,0) tid=(31,0,0)
36600000 instructions simulated : ctaid=(41,0,0) tid=(31,0,0)
36700000 instructions simulated : ctaid=(51,0,0) tid=(63,0,0)
36800000 instructions simulated : ctaid=(26,0,0) tid=(31,0,0)
36900000 instructions simulated : ctaid=(27,0,0) tid=(223,0,0)
37000000 instructions simulated : ctaid=(19,0,0) tid=(159,0,0)
37100000 instructions simulated : ctaid=(0,0,0) tid=(191,0,0)
37200000 instructions simulated : ctaid=(58,0,0) tid=(159,0,0)
37300000 instructions simulated : ctaid=(43,0,0) tid=(191,0,0)
37400000 instructions simulated : ctaid=(60,0,0) tid=(127,0,0)
37500000 instructions simulated : ctaid=(3,0,0) tid=(191,0,0)
37600000 instructions simulated : ctaid=(47,0,0) tid=(127,0,0)
37700000 instructions simulated : ctaid=(63,0,0) tid=(191,0,0)
37800000 instructions simulated : ctaid=(13,0,0) tid=(223,0,0)
37900000 instructions simulated : ctaid=(45,0,0) tid=(255,0,0)
38000000 instructions simulated : ctaid=(27,0,0) tid=(127,0,0)
38100000 instructions simulated : ctaid=(52,0,0) tid=(159,0,0)
38200000 instructions simulated : ctaid=(29,0,0) tid=(95,0,0)
38300000 instructions simulated : ctaid=(32,0,0) tid=(127,0,0)
38400000 instructions simulated : ctaid=(42,0,0) tid=(95,0,0)
38500000 instructions simulated : ctaid=(13,0,0) tid=(159,0,0)
38600000 instructions simulated : ctaid=(7,0,0) tid=(159,0,0)
38700000 instructions simulated : ctaid=(16,0,0) tid=(95,0,0)
38800000 instructions simulated : ctaid=(14,0,0) tid=(191,0,0)
38900000 instructions simulated : ctaid=(55,0,0) tid=(223,0,0)
39000000 instructions simulated : ctaid=(25,0,0) tid=(63,0,0)
39100000 instructions simulated : ctaid=(35,0,0) tid=(223,0,0)
39200000 instructions simulated : ctaid=(52,0,0) tid=(191,0,0)
cycles: 50000  inst.: 39211328 (ipc=784.2) sim_rate=11954 (inst/sec) elapsed = 0:0:54:40 / Tue May 24 14:15:54 2011
39300000 instructions simulated : ctaid=(1,0,0) tid=(223,0,0)
39400000 instructions simulated : ctaid=(23,0,0) tid=(31,0,0)
39500000 instructions simulated : ctaid=(52,0,0) tid=(255,0,0)
39600000 instructions simulated : ctaid=(25,0,0) tid=(191,0,0)
39700000 instructions simulated : ctaid=(18,0,0) tid=(159,0,0)
39800000 instructions simulated : ctaid=(37,0,0) tid=(223,0,0)
39900000 instructions simulated : ctaid=(53,0,0) tid=(191,0,0)
40000000 instructions simulated : ctaid=(48,0,0) tid=(31,0,0)
40100000 instructions simulated : ctaid=(16,0,0) tid=(191,0,0)
40200000 instructions simulated : ctaid=(51,0,0) tid=(255,0,0)
40300000 instructions simulated : ctaid=(13,0,0) tid=(95,0,0)
40400000 instructions simulated : ctaid=(62,0,0) tid=(255,0,0)
40500000 instructions simulated : ctaid=(63,0,0) tid=(63,0,0)
40600000 instructions simulated : ctaid=(34,0,0) tid=(63,0,0)
40700000 instructions simulated : ctaid=(57,0,0) tid=(31,0,0)
40800000 instructions simulated : ctaid=(39,0,0) tid=(159,0,0)
40900000 instructions simulated : ctaid=(41,0,0) tid=(95,0,0)
41000000 instructions simulated : ctaid=(22,0,0) tid=(191,0,0)
41100000 instructions simulated : ctaid=(40,0,0) tid=(191,0,0)
41200000 instructions simulated : ctaid=(11,0,0) tid=(127,0,0)
41300000 instructions simulated : ctaid=(9,0,0) tid=(63,0,0)
41400000 instructions simulated : ctaid=(53,0,0) tid=(31,0,0)
41500000 instructions simulated : ctaid=(51,0,0) tid=(191,0,0)
41600000 instructions simulated : ctaid=(39,0,0) tid=(127,0,0)
41700000 instructions simulated : ctaid=(32,0,0) tid=(63,0,0)
41800000 instructions simulated : ctaid=(0,0,0) tid=(127,0,0)
41900000 instructions simulated : ctaid=(44,0,0) tid=(31,0,0)
42000000 instructions simulated : ctaid=(21,0,0) tid=(31,0,0)
42100000 instructions simulated : ctaid=(46,0,0) tid=(159,0,0)
42200000 instructions simulated : ctaid=(26,0,0) tid=(127,0,0)
42300000 instructions simulated : ctaid=(38,0,0) tid=(223,0,0)
42400000 instructions simulated : ctaid=(63,0,0) tid=(255,0,0)
42500000 instructions simulated : ctaid=(20,0,0) tid=(159,0,0)
42600000 instructions simulated : ctaid=(42,0,0) tid=(191,0,0)
42700000 instructions simulated : ctaid=(4,0,0) tid=(191,0,0)
42800000 instructions simulated : ctaid=(19,0,0) tid=(95,0,0)
42900000 instructions simulated : ctaid=(37,0,0) tid=(223,0,0)
43000000 instructions simulated : ctaid=(20,0,0) tid=(223,0,0)
43100000 instructions simulated : ctaid=(0,0,0) tid=(31,0,0)
43200000 instructions simulated : ctaid=(35,0,0) tid=(63,0,0)
43300000 instructions simulated : ctaid=(51,0,0) tid=(191,0,0)
43400000 instructions simulated : ctaid=(49,0,0) tid=(127,0,0)
43500000 instructions simulated : ctaid=(37,0,0) tid=(127,0,0)
43600000 instructions simulated : ctaid=(4,0,0) tid=(63,0,0)
43700000 instructions simulated : ctaid=(26,0,0) tid=(223,0,0)
43800000 instructions simulated : ctaid=(59,0,0) tid=(63,0,0)
43900000 instructions simulated : ctaid=(62,0,0) tid=(63,0,0)
44000000 instructions simulated : ctaid=(58,0,0) tid=(31,0,0)
44100000 instructions simulated : ctaid=(49,0,0) tid=(191,0,0)
44200000 instructions simulated : ctaid=(32,0,0) tid=(63,0,0)
44300000 instructions simulated : ctaid=(49,0,0) tid=(255,0,0)
44400000 instructions simulated : ctaid=(58,0,0) tid=(255,0,0)
44500000 instructions simulated : ctaid=(47,0,0) tid=(191,0,0)
44600000 instructions simulated : ctaid=(49,0,0) tid=(95,0,0)
44700000 instructions simulated : ctaid=(37,0,0) tid=(159,0,0)
44800000 instructions simulated : ctaid=(62,0,0) tid=(127,0,0)
44900000 instructions simulated : ctaid=(1,0,0) tid=(223,0,0)
45000000 instructions simulated : ctaid=(10,0,0) tid=(31,0,0)
45100000 instructions simulated : ctaid=(29,0,0) tid=(31,0,0)
45200000 instructions simulated : ctaid=(11,0,0) tid=(159,0,0)
45300000 instructions simulated : ctaid=(30,0,0) tid=(191,0,0)
45400000 instructions simulated : ctaid=(50,0,0) tid=(159,0,0)
45500000 instructions simulated : ctaid=(55,0,0) tid=(223,0,0)
45600000 instructions simulated : ctaid=(55,0,0) tid=(255,0,0)
45700000 instructions simulated : ctaid=(42,0,0) tid=(223,0,0)
45800000 instructions simulated : ctaid=(32,0,0) tid=(31,0,0)
45900000 instructions simulated : ctaid=(19,0,0) tid=(95,0,0)
46000000 instructions simulated : ctaid=(12,0,0) tid=(95,0,0)
46100000 instructions simulated : ctaid=(29,0,0) tid=(127,0,0)
46200000 instructions simulated : ctaid=(51,0,0) tid=(95,0,0)
46300000 instructions simulated : ctaid=(43,0,0) tid=(127,0,0)
46400000 instructions simulated : ctaid=(21,0,0) tid=(127,0,0)
46500000 instructions simulated : ctaid=(12,0,0) tid=(31,0,0)
46600000 instructions simulated : ctaid=(4,0,0) tid=(223,0,0)
46700000 instructions simulated : ctaid=(20,0,0) tid=(127,0,0)
46800000 instructions simulated : ctaid=(14,0,0) tid=(223,0,0)
46900000 instructions simulated : ctaid=(22,0,0) tid=(223,0,0)
47000000 instructions simulated : ctaid=(16,0,0) tid=(255,0,0)
cycles: 60000  inst.: 47033504 (ipc=783.9) sim_rate=11892 (inst/sec) elapsed = 0:1:05:55 / Tue May 24 14:27:09 2011
47100000 instructions simulated : ctaid=(44,0,0) tid=(223,0,0)
47200000 instructions simulated : ctaid=(45,0,0) tid=(255,0,0)
47300000 instructions simulated : ctaid=(15,0,0) tid=(191,0,0)
47400000 instructions simulated : ctaid=(54,0,0) tid=(127,0,0)
47500000 instructions simulated : ctaid=(34,0,0) tid=(63,0,0)
47600000 instructions simulated : ctaid=(14,0,0) tid=(191,0,0)
47700000 instructions simulated : ctaid=(33,0,0) tid=(255,0,0)
47800000 instructions simulated : ctaid=(12,0,0) tid=(191,0,0)
47900000 instructions simulated : ctaid=(18,0,0) tid=(95,0,0)
48000000 instructions simulated : ctaid=(12,0,0) tid=(191,0,0)
48100000 instructions simulated : ctaid=(50,0,0) tid=(223,0,0)
48200000 instructions simulated : ctaid=(45,0,0) tid=(255,0,0)
48300000 instructions simulated : ctaid=(23,0,0) tid=(159,0,0)
48400000 instructions simulated : ctaid=(6,0,0) tid=(255,0,0)
48500000 instructions simulated : ctaid=(61,0,0) tid=(159,0,0)
48600000 instructions simulated : ctaid=(40,0,0) tid=(31,0,0)
48700000 instructions simulated : ctaid=(37,0,0) tid=(191,0,0)
48800000 instructions simulated : ctaid=(43,0,0) tid=(223,0,0)
48900000 instructions simulated : ctaid=(3,0,0) tid=(191,0,0)
49000000 instructions simulated : ctaid=(22,0,0) tid=(95,0,0)
49100000 instructions simulated : ctaid=(34,0,0) tid=(223,0,0)
49200000 instructions simulated : ctaid=(44,0,0) tid=(255,0,0)
49300000 instructions simulated : ctaid=(59,0,0) tid=(191,0,0)
49400000 instructions simulated : ctaid=(63,0,0) tid=(159,0,0)
49500000 instructions simulated : ctaid=(61,0,0) tid=(31,0,0)
49600000 instructions simulated : ctaid=(16,0,0) tid=(159,0,0)
49700000 instructions simulated : ctaid=(48,0,0) tid=(127,0,0)
49800000 instructions simulated : ctaid=(30,0,0) tid=(63,0,0)
49900000 instructions simulated : ctaid=(54,0,0) tid=(255,0,0)
50000000 instructions simulated : ctaid=(45,0,0) tid=(95,0,0)
50100000 instructions simulated : ctaid=(10,0,0) tid=(159,0,0)
50200000 instructions simulated : ctaid=(37,0,0) tid=(191,0,0)
50300000 instructions simulated : ctaid=(5,0,0) tid=(223,0,0)
50400000 instructions simulated : ctaid=(5,0,0) tid=(127,0,0)
50500000 instructions simulated : ctaid=(36,0,0) tid=(63,0,0)
50600000 instructions simulated : ctaid=(20,0,0) tid=(31,0,0)
50700000 instructions simulated : ctaid=(20,0,0) tid=(191,0,0)
50800000 instructions simulated : ctaid=(0,0,0) tid=(255,0,0)
50900000 instructions simulated : ctaid=(36,0,0) tid=(223,0,0)
51000000 instructions simulated : ctaid=(2,0,0) tid=(31,0,0)
51100000 instructions simulated : ctaid=(53,0,0) tid=(31,0,0)
51200000 instructions simulated : ctaid=(37,0,0) tid=(127,0,0)
51300000 instructions simulated : ctaid=(18,0,0) tid=(95,0,0)
51400000 instructions simulated : ctaid=(17,0,0) tid=(95,0,0)
51500000 instructions simulated : ctaid=(59,0,0) tid=(191,0,0)
51600000 instructions simulated : ctaid=(61,0,0) tid=(255,0,0)
51700000 instructions simulated : ctaid=(2,0,0) tid=(159,0,0)
51800000 instructions simulated : ctaid=(51,0,0) tid=(31,0,0)
51900000 instructions simulated : ctaid=(22,0,0) tid=(31,0,0)
52000000 instructions simulated : ctaid=(43,0,0) tid=(95,0,0)
52100000 instructions simulated : ctaid=(7,0,0) tid=(223,0,0)
52200000 instructions simulated : ctaid=(49,0,0) tid=(191,0,0)
52300000 instructions simulated : ctaid=(36,0,0) tid=(159,0,0)
52400000 instructions simulated : ctaid=(21,0,0) tid=(191,0,0)
52500000 instructions simulated : ctaid=(53,0,0) tid=(31,0,0)
52600000 instructions simulated : ctaid=(19,0,0) tid=(159,0,0)
52700000 instructions simulated : ctaid=(0,0,0) tid=(255,0,0)
52800000 instructions simulated : ctaid=(12,0,0) tid=(127,0,0)
52900000 instructions simulated : ctaid=(26,0,0) tid=(63,0,0)
53000000 instructions simulated : ctaid=(55,0,0) tid=(63,0,0)
53100000 instructions simulated : ctaid=(39,0,0) tid=(223,0,0)
53200000 instructions simulated : ctaid=(28,0,0) tid=(223,0,0)
53300000 instructions simulated : ctaid=(37,0,0) tid=(127,0,0)
53400000 instructions simulated : ctaid=(45,0,0) tid=(191,0,0)
53500000 instructions simulated : ctaid=(61,0,0) tid=(255,0,0)
53600000 instructions simulated : ctaid=(21,0,0) tid=(159,0,0)
53700000 instructions simulated : ctaid=(7,0,0) tid=(95,0,0)
53800000 instructions simulated : ctaid=(63,0,0) tid=(95,0,0)
53900000 instructions simulated : ctaid=(34,0,0) tid=(127,0,0)
54000000 instructions simulated : ctaid=(49,0,0) tid=(191,0,0)
54100000 instructions simulated : ctaid=(27,0,0) tid=(223,0,0)
54200000 instructions simulated : ctaid=(44,0,0) tid=(31,0,0)
54300000 instructions simulated : ctaid=(8,0,0) tid=(63,0,0)
54400000 instructions simulated : ctaid=(28,0,0) tid=(95,0,0)
54500000 instructions simulated : ctaid=(54,0,0) tid=(255,0,0)
54600000 instructions simulated : ctaid=(25,0,0) tid=(31,0,0)
54700000 instructions simulated : ctaid=(21,0,0) tid=(255,0,0)
54800000 instructions simulated : ctaid=(8,0,0) tid=(255,0,0)
cycles: 70000  inst.: 54860160 (ipc=783.7) sim_rate=11600 (inst/sec) elapsed = 0:1:18:49 / Tue May 24 14:40:03 2011
54900000 instructions simulated : ctaid=(15,0,0) tid=(63,0,0)
55000000 instructions simulated : ctaid=(50,0,0) tid=(255,0,0)
55100000 instructions simulated : ctaid=(27,0,0) tid=(95,0,0)
55200000 instructions simulated : ctaid=(49,0,0) tid=(95,0,0)
55300000 instructions simulated : ctaid=(36,0,0) tid=(255,0,0)
55400000 instructions simulated : ctaid=(13,0,0) tid=(127,0,0)
55500000 instructions simulated : ctaid=(49,0,0) tid=(127,0,0)
55600000 instructions simulated : ctaid=(14,0,0) tid=(95,0,0)
55700000 instructions simulated : ctaid=(14,0,0) tid=(127,0,0)
55800000 instructions simulated : ctaid=(47,0,0) tid=(223,0,0)
55900000 instructions simulated : ctaid=(51,0,0) tid=(31,0,0)
56000000 instructions simulated : ctaid=(61,0,0) tid=(159,0,0)
56100000 instructions simulated : ctaid=(44,0,0) tid=(31,0,0)
56200000 instructions simulated : ctaid=(13,0,0) tid=(223,0,0)
56300000 instructions simulated : ctaid=(63,0,0) tid=(159,0,0)
56400000 instructions simulated : ctaid=(46,0,0) tid=(255,0,0)
56500000 instructions simulated : ctaid=(40,0,0) tid=(31,0,0)
56600000 instructions simulated : ctaid=(43,0,0) tid=(191,0,0)
56700000 instructions simulated : ctaid=(26,0,0) tid=(63,0,0)
56800000 instructions simulated : ctaid=(52,0,0) tid=(95,0,0)
56900000 instructions simulated : ctaid=(58,0,0) tid=(159,0,0)
57000000 instructions simulated : ctaid=(43,0,0) tid=(223,0,0)
57100000 instructions simulated : ctaid=(28,0,0) tid=(63,0,0)
57200000 instructions simulated : ctaid=(50,0,0) tid=(95,0,0)
57300000 instructions simulated : ctaid=(14,0,0) tid=(95,0,0)
57400000 instructions simulated : ctaid=(60,0,0) tid=(191,0,0)
57500000 instructions simulated : ctaid=(41,0,0) tid=(255,0,0)
57600000 instructions simulated : ctaid=(13,0,0) tid=(191,0,0)
57700000 instructions simulated : ctaid=(59,0,0) tid=(31,0,0)
57800000 instructions simulated : ctaid=(25,0,0) tid=(159,0,0)
57900000 instructions simulated : ctaid=(9,0,0) tid=(63,0,0)
58000000 instructions simulated : ctaid=(45,0,0) tid=(255,0,0)
58100000 instructions simulated : ctaid=(53,0,0) tid=(127,0,0)
58200000 instructions simulated : ctaid=(42,0,0) tid=(31,0,0)
58300000 instructions simulated : ctaid=(14,0,0) tid=(63,0,0)
58400000 instructions simulated : ctaid=(48,0,0) tid=(191,0,0)
58500000 instructions simulated : ctaid=(8,0,0) tid=(127,0,0)
58600000 instructions simulated : ctaid=(21,0,0) tid=(31,0,0)
58700000 instructions simulated : ctaid=(39,0,0) tid=(255,0,0)
58800000 instructions simulated : ctaid=(43,0,0) tid=(191,0,0)
58900000 instructions simulated : ctaid=(42,0,0) tid=(63,0,0)
59000000 instructions simulated : ctaid=(26,0,0) tid=(95,0,0)
59100000 instructions simulated : ctaid=(55,0,0) tid=(223,0,0)
59200000 instructions simulated : ctaid=(8,0,0) tid=(223,0,0)
59300000 instructions simulated : ctaid=(21,0,0) tid=(191,0,0)
59400000 instructions simulated : ctaid=(22,0,0) tid=(31,0,0)
59500000 instructions simulated : ctaid=(19,0,0) tid=(223,0,0)
59600000 instructions simulated : ctaid=(62,0,0) tid=(255,0,0)
59700000 instructions simulated : ctaid=(11,0,0) tid=(159,0,0)
59800000 instructions simulated : ctaid=(3,0,0) tid=(127,0,0)
59900000 instructions simulated : ctaid=(7,0,0) tid=(127,0,0)
60000000 instructions simulated : ctaid=(34,0,0) tid=(159,0,0)
60100000 instructions simulated : ctaid=(9,0,0) tid=(63,0,0)
60200000 instructions simulated : ctaid=(5,0,0) tid=(223,0,0)
60300000 instructions simulated : ctaid=(42,0,0) tid=(191,0,0)
60400000 instructions simulated : ctaid=(25,0,0) tid=(127,0,0)
60500000 instructions simulated : ctaid=(54,0,0) tid=(191,0,0)
60600000 instructions simulated : ctaid=(4,0,0) tid=(191,0,0)
60700000 instructions simulated : ctaid=(53,0,0) tid=(255,0,0)
60800000 instructions simulated : ctaid=(44,0,0) tid=(127,0,0)
60900000 instructions simulated : ctaid=(28,0,0) tid=(159,0,0)
61000000 instructions simulated : ctaid=(11,0,0) tid=(159,0,0)
61100000 instructions simulated : ctaid=(56,0,0) tid=(255,0,0)
61200000 instructions simulated : ctaid=(30,0,0) tid=(159,0,0)
61300000 instructions simulated : ctaid=(12,0,0) tid=(95,0,0)
61400000 instructions simulated : ctaid=(60,0,0) tid=(255,0,0)
61500000 instructions simulated : ctaid=(25,0,0) tid=(95,0,0)
61600000 instructions simulated : ctaid=(28,0,0) tid=(95,0,0)
61700000 instructions simulated : ctaid=(46,0,0) tid=(95,0,0)
61800000 instructions simulated : ctaid=(5,0,0) tid=(95,0,0)
61900000 instructions simulated : ctaid=(40,0,0) tid=(159,0,0)
62000000 instructions simulated : ctaid=(18,0,0) tid=(223,0,0)
62100000 instructions simulated : ctaid=(40,0,0) tid=(63,0,0)
62200000 instructions simulated : ctaid=(46,0,0) tid=(31,0,0)
62300000 instructions simulated : ctaid=(46,0,0) tid=(223,0,0)
62400000 instructions simulated : ctaid=(39,0,0) tid=(127,0,0)
62500000 instructions simulated : ctaid=(1,0,0) tid=(223,0,0)
62600000 instructions simulated : ctaid=(23,0,0) tid=(127,0,0)
cycles: 80000  inst.: 62680352 (ipc=783.5) sim_rate=11235 (inst/sec) elapsed = 0:1:32:59 / Tue May 24 14:54:13 2011
62700000 instructions simulated : ctaid=(9,0,0) tid=(159,0,0)
62800000 instructions simulated : ctaid=(57,0,0) tid=(255,0,0)
62900000 instructions simulated : ctaid=(49,0,0) tid=(191,0,0)
63000000 instructions simulated : ctaid=(58,0,0) tid=(255,0,0)
63100000 instructions simulated : ctaid=(17,0,0) tid=(31,0,0)
63200000 instructions simulated : ctaid=(31,0,0) tid=(95,0,0)
63300000 instructions simulated : ctaid=(63,0,0) tid=(95,0,0)
63400000 instructions simulated : ctaid=(59,0,0) tid=(95,0,0)
63500000 instructions simulated : ctaid=(38,0,0) tid=(255,0,0)
63600000 instructions simulated : ctaid=(7,0,0) tid=(191,0,0)
63700000 instructions simulated : ctaid=(58,0,0) tid=(63,0,0)
63800000 instructions simulated : ctaid=(5,0,0) tid=(127,0,0)
63900000 instructions simulated : ctaid=(43,0,0) tid=(95,0,0)
64000000 instructions simulated : ctaid=(28,0,0) tid=(191,0,0)
64100000 instructions simulated : ctaid=(46,0,0) tid=(127,0,0)
64200000 instructions simulated : ctaid=(60,0,0) tid=(95,0,0)
64300000 instructions simulated : ctaid=(44,0,0) tid=(191,0,0)
64400000 instructions simulated : ctaid=(16,0,0) tid=(63,0,0)
64500000 instructions simulated : ctaid=(8,0,0) tid=(31,0,0)
64600000 instructions simulated : ctaid=(55,0,0) tid=(127,0,0)
64700000 instructions simulated : ctaid=(47,0,0) tid=(223,0,0)
64800000 instructions simulated : ctaid=(16,0,0) tid=(95,0,0)
64900000 instructions simulated : ctaid=(31,0,0) tid=(127,0,0)
65000000 instructions simulated : ctaid=(47,0,0) tid=(223,0,0)
65100000 instructions simulated : ctaid=(63,0,0) tid=(95,0,0)
65200000 instructions simulated : ctaid=(11,0,0) tid=(63,0,0)
65300000 instructions simulated : ctaid=(34,0,0) tid=(95,0,0)
65400000 instructions simulated : ctaid=(55,0,0) tid=(223,0,0)
65500000 instructions simulated : ctaid=(24,0,0) tid=(255,0,0)
65600000 instructions simulated : ctaid=(59,0,0) tid=(63,0,0)
65700000 instructions simulated : ctaid=(3,0,0) tid=(223,0,0)
65800000 instructions simulated : ctaid=(24,0,0) tid=(127,0,0)
65900000 instructions simulated : ctaid=(63,0,0) tid=(127,0,0)
66000000 instructions simulated : ctaid=(51,0,0) tid=(95,0,0)
66100000 instructions simulated : ctaid=(48,0,0) tid=(255,0,0)
66200000 instructions simulated : ctaid=(43,0,0) tid=(223,0,0)
66300000 instructions simulated : ctaid=(58,0,0) tid=(159,0,0)
66400000 instructions simulated : ctaid=(22,0,0) tid=(223,0,0)
66500000 instructions simulated : ctaid=(12,0,0) tid=(191,0,0)
66600000 instructions simulated : ctaid=(19,0,0) tid=(223,0,0)
66700000 instructions simulated : ctaid=(37,0,0) tid=(95,0,0)
66800000 instructions simulated : ctaid=(7,0,0) tid=(191,0,0)
66900000 instructions simulated : ctaid=(53,0,0) tid=(31,0,0)
67000000 instructions simulated : ctaid=(11,0,0) tid=(223,0,0)
67100000 instructions simulated : ctaid=(53,0,0) tid=(31,0,0)
67200000 instructions simulated : ctaid=(39,0,0) tid=(191,0,0)
67300000 instructions simulated : ctaid=(49,0,0) tid=(255,0,0)
67400000 instructions simulated : ctaid=(34,0,0) tid=(255,0,0)
67500000 instructions simulated : ctaid=(22,0,0) tid=(223,0,0)
67600000 instructions simulated : ctaid=(19,0,0) tid=(95,0,0)
67700000 instructions simulated : ctaid=(53,0,0) tid=(191,0,0)
67800000 instructions simulated : ctaid=(25,0,0) tid=(31,0,0)
67900000 instructions simulated : ctaid=(25,0,0) tid=(255,0,0)
68000000 instructions simulated : ctaid=(46,0,0) tid=(127,0,0)
68100000 instructions simulated : ctaid=(0,0,0) tid=(31,0,0)
68200000 instructions simulated : ctaid=(47,0,0) tid=(255,0,0)
68300000 instructions simulated : ctaid=(36,0,0) tid=(63,0,0)
68400000 instructions simulated : ctaid=(17,0,0) tid=(223,0,0)
68500000 instructions simulated : ctaid=(44,0,0) tid=(95,0,0)
68600000 instructions simulated : ctaid=(6,0,0) tid=(223,0,0)
68700000 instructions simulated : ctaid=(57,0,0) tid=(223,0,0)
68800000 instructions simulated : ctaid=(22,0,0) tid=(159,0,0)
68900000 instructions simulated : ctaid=(39,0,0) tid=(255,0,0)
69000000 instructions simulated : ctaid=(49,0,0) tid=(31,0,0)
69100000 instructions simulated : ctaid=(8,0,0) tid=(95,0,0)
69200000 instructions simulated : ctaid=(6,0,0) tid=(191,0,0)
69300000 instructions simulated : ctaid=(18,0,0) tid=(95,0,0)
69400000 instructions simulated : ctaid=(11,0,0) tid=(255,0,0)
69500000 instructions simulated : ctaid=(10,0,0) tid=(95,0,0)
69600000 instructions simulated : ctaid=(30,0,0) tid=(63,0,0)
69700000 instructions simulated : ctaid=(10,0,0) tid=(159,0,0)
69800000 instructions simulated : ctaid=(36,0,0) tid=(159,0,0)
69900000 instructions simulated : ctaid=(18,0,0) tid=(95,0,0)
70000000 instructions simulated : ctaid=(34,0,0) tid=(95,0,0)
70100000 instructions simulated : ctaid=(49,0,0) tid=(159,0,0)
70200000 instructions simulated : ctaid=(2,0,0) tid=(31,0,0)
70300000 instructions simulated : ctaid=(51,0,0) tid=(223,0,0)
70400000 instructions simulated : ctaid=(18,0,0) tid=(31,0,0)
70500000 instructions simulated : ctaid=(59,0,0) tid=(255,0,0)
cycles: 90000  inst.: 70498016 (ipc=783.3) sim_rate=10679 (inst/sec) elapsed = 0:1:50:01 / Tue May 24 15:11:15 2011
70600000 instructions simulated : ctaid=(11,0,0) tid=(255,0,0)
70700000 instructions simulated : ctaid=(43,0,0) tid=(95,0,0)
70800000 instructions simulated : ctaid=(20,0,0) tid=(63,0,0)
70900000 instructions simulated : ctaid=(16,0,0) tid=(159,0,0)
71000000 instructions simulated : ctaid=(46,0,0) tid=(255,0,0)
71100000 instructions simulated : ctaid=(59,0,0) tid=(127,0,0)
71200000 instructions simulated : ctaid=(0,0,0) tid=(95,0,0)
71300000 instructions simulated : ctaid=(40,0,0) tid=(191,0,0)
71400000 instructions simulated : ctaid=(14,0,0) tid=(159,0,0)
71500000 instructions simulated : ctaid=(47,0,0) tid=(127,0,0)
71600000 instructions simulated : ctaid=(18,0,0) tid=(191,0,0)
71700000 instructions simulated : ctaid=(60,0,0) tid=(255,0,0)
71800000 instructions simulated : ctaid=(55,0,0) tid=(191,0,0)
71900000 instructions simulated : ctaid=(58,0,0) tid=(95,0,0)
72000000 instructions simulated : ctaid=(4,0,0) tid=(127,0,0)
72100000 instructions simulated : ctaid=(60,0,0) tid=(31,0,0)
72200000 instructions simulated : ctaid=(42,0,0) tid=(159,0,0)
72300000 instructions simulated : ctaid=(47,0,0) tid=(223,0,0)
72400000 instructions simulated : ctaid=(35,0,0) tid=(223,0,0)
72500000 instructions simulated : ctaid=(57,0,0) tid=(63,0,0)
72600000 instructions simulated : ctaid=(26,0,0) tid=(223,0,0)
72700000 instructions simulated : ctaid=(27,0,0) tid=(191,0,0)
72800000 instructions simulated : ctaid=(63,0,0) tid=(31,0,0)
72900000 instructions simulated : ctaid=(31,0,0) tid=(127,0,0)
73000000 instructions simulated : ctaid=(5,0,0) tid=(255,0,0)
73100000 instructions simulated : ctaid=(1,0,0) tid=(63,0,0)
73200000 instructions simulated : ctaid=(20,0,0) tid=(223,0,0)
73300000 instructions simulated : ctaid=(37,0,0) tid=(63,0,0)
73400000 instructions simulated : ctaid=(27,0,0) tid=(31,0,0)
73500000 instructions simulated : ctaid=(7,0,0) tid=(63,0,0)
73600000 instructions simulated : ctaid=(48,0,0) tid=(191,0,0)
73700000 instructions simulated : ctaid=(12,0,0) tid=(63,0,0)
73800000 instructions simulated : ctaid=(6,0,0) tid=(31,0,0)
73900000 instructions simulated : ctaid=(26,0,0) tid=(223,0,0)
74000000 instructions simulated : ctaid=(32,0,0) tid=(95,0,0)
74100000 instructions simulated : ctaid=(20,0,0) tid=(95,0,0)
74200000 instructions simulated : ctaid=(17,0,0) tid=(159,0,0)
74300000 instructions simulated : ctaid=(41,0,0) tid=(191,0,0)
74400000 instructions simulated : ctaid=(30,0,0) tid=(223,0,0)
74500000 instructions simulated : ctaid=(0,0,0) tid=(127,0,0)
74600000 instructions simulated : ctaid=(34,0,0) tid=(31,0,0)
74700000 instructions simulated : ctaid=(29,0,0) tid=(95,0,0)
74800000 instructions simulated : ctaid=(59,0,0) tid=(255,0,0)
74900000 instructions simulated : ctaid=(52,0,0) tid=(127,0,0)
75000000 instructions simulated : ctaid=(37,0,0) tid=(127,0,0)
75100000 instructions simulated : ctaid=(44,0,0) tid=(191,0,0)
75200000 instructions simulated : ctaid=(12,0,0) tid=(31,0,0)
75300000 instructions simulated : ctaid=(51,0,0) tid=(191,0,0)
75400000 instructions simulated : ctaid=(49,0,0) tid=(255,0,0)
75500000 instructions simulated : ctaid=(1,0,0) tid=(63,0,0)
75600000 instructions simulated : ctaid=(51,0,0) tid=(223,0,0)
75700000 instructions simulated : ctaid=(3,0,0) tid=(63,0,0)
75800000 instructions simulated : ctaid=(29,0,0) tid=(191,0,0)
75900000 instructions simulated : ctaid=(30,0,0) tid=(223,0,0)
76000000 instructions simulated : ctaid=(41,0,0) tid=(255,0,0)
76100000 instructions simulated : ctaid=(34,0,0) tid=(95,0,0)
76200000 instructions simulated : ctaid=(24,0,0) tid=(31,0,0)
76300000 instructions simulated : ctaid=(51,0,0) tid=(31,0,0)
76400000 instructions simulated : ctaid=(25,0,0) tid=(127,0,0)
76500000 instructions simulated : ctaid=(56,0,0) tid=(63,0,0)
76600000 instructions simulated : ctaid=(9,0,0) tid=(159,0,0)
76700000 instructions simulated : ctaid=(25,0,0) tid=(31,0,0)
76800000 instructions simulated : ctaid=(2,0,0) tid=(63,0,0)
76900000 instructions simulated : ctaid=(13,0,0) tid=(63,0,0)
77000000 instructions simulated : ctaid=(11,0,0) tid=(255,0,0)
77100000 instructions simulated : ctaid=(9,0,0) tid=(63,0,0)
77200000 instructions simulated : ctaid=(14,0,0) tid=(223,0,0)
77300000 instructions simulated : ctaid=(23,0,0) tid=(95,0,0)
77400000 instructions simulated : ctaid=(30,0,0) tid=(127,0,0)
77500000 instructions simulated : ctaid=(8,0,0) tid=(191,0,0)
77600000 instructions simulated : ctaid=(26,0,0) tid=(159,0,0)
77700000 instructions simulated : ctaid=(12,0,0) tid=(191,0,0)
77800000 instructions simulated : ctaid=(11,0,0) tid=(255,0,0)
77900000 instructions simulated : ctaid=(2,0,0) tid=(31,0,0)
78000000 instructions simulated : ctaid=(26,0,0) tid=(191,0,0)
78100000 instructions simulated : ctaid=(15,0,0) tid=(31,0,0)
78200000 instructions simulated : ctaid=(40,0,0) tid=(95,0,0)
78300000 instructions simulated : ctaid=(4,0,0) tid=(127,0,0)
cycles: 100000  inst.: 78318176 (ipc=783.2) sim_rate=10677 (inst/sec) elapsed = 0:2:02:15 / Tue May 24 15:23:29 2011
78400000 instructions simulated : ctaid=(8,0,0) tid=(223,0,0)
78500000 instructions simulated : ctaid=(32,0,0) tid=(63,0,0)
78600000 instructions simulated : ctaid=(20,0,0) tid=(191,0,0)
78700000 instructions simulated : ctaid=(57,0,0) tid=(159,0,0)
78800000 instructions simulated : ctaid=(47,0,0) tid=(127,0,0)
78900000 instructions simulated : ctaid=(27,0,0) tid=(31,0,0)
79000000 instructions simulated : ctaid=(51,0,0) tid=(191,0,0)
79100000 instructions simulated : ctaid=(39,0,0) tid=(255,0,0)
79200000 instructions simulated : ctaid=(45,0,0) tid=(95,0,0)
79300000 instructions simulated : ctaid=(40,0,0) tid=(255,0,0)
79400000 instructions simulated : ctaid=(22,0,0) tid=(127,0,0)
79500000 instructions simulated : ctaid=(19,0,0) tid=(255,0,0)
79600000 instructions simulated : ctaid=(20,0,0) tid=(127,0,0)
79700000 instructions simulated : ctaid=(46,0,0) tid=(255,0,0)
79800000 instructions simulated : ctaid=(28,0,0) tid=(223,0,0)
79900000 instructions simulated : ctaid=(37,0,0) tid=(223,0,0)
80000000 instructions simulated : ctaid=(43,0,0) tid=(191,0,0)
80100000 instructions simulated : ctaid=(1,0,0) tid=(223,0,0)
80200000 instructions simulated : ctaid=(1,0,0) tid=(191,0,0)
80300000 instructions simulated : ctaid=(43,0,0) tid=(95,0,0)
80400000 instructions simulated : ctaid=(55,0,0) tid=(159,0,0)
80500000 instructions simulated : ctaid=(14,0,0) tid=(63,0,0)
80600000 instructions simulated : ctaid=(18,0,0) tid=(255,0,0)
80700000 instructions simulated : ctaid=(33,0,0) tid=(63,0,0)
80800000 instructions simulated : ctaid=(8,0,0) tid=(159,0,0)
80900000 instructions simulated : ctaid=(45,0,0) tid=(95,0,0)
81000000 instructions simulated : ctaid=(6,0,0) tid=(191,0,0)
81100000 instructions simulated : ctaid=(48,0,0) tid=(63,0,0)
81200000 instructions simulated : ctaid=(44,0,0) tid=(127,0,0)
81300000 instructions simulated : ctaid=(8,0,0) tid=(255,0,0)
81400000 instructions simulated : ctaid=(35,0,0) tid=(255,0,0)
81500000 instructions simulated : ctaid=(21,0,0) tid=(95,0,0)
81600000 instructions simulated : ctaid=(11,0,0) tid=(63,0,0)
81700000 instructions simulated : ctaid=(21,0,0) tid=(223,0,0)
81800000 instructions simulated : ctaid=(41,0,0) tid=(159,0,0)
81900000 instructions simulated : ctaid=(47,0,0) tid=(159,0,0)
82000000 instructions simulated : ctaid=(47,0,0) tid=(95,0,0)
82100000 instructions simulated : ctaid=(49,0,0) tid=(255,0,0)
82200000 instructions simulated : ctaid=(24,0,0) tid=(223,0,0)
82300000 instructions simulated : ctaid=(10,0,0) tid=(31,0,0)
82400000 instructions simulated : ctaid=(59,0,0) tid=(223,0,0)
82500000 instructions simulated : ctaid=(51,0,0) tid=(63,0,0)
82600000 instructions simulated : ctaid=(35,0,0) tid=(95,0,0)
82700000 instructions simulated : ctaid=(23,0,0) tid=(63,0,0)
82800000 instructions simulated : ctaid=(6,0,0) tid=(191,0,0)
82900000 instructions simulated : ctaid=(55,0,0) tid=(255,0,0)
83000000 instructions simulated : ctaid=(42,0,0) tid=(127,0,0)
83100000 instructions simulated : ctaid=(1,0,0) tid=(255,0,0)
83200000 instructions simulated : ctaid=(5,0,0) tid=(95,0,0)
83300000 instructions simulated : ctaid=(51,0,0) tid=(255,0,0)
83400000 instructions simulated : ctaid=(57,0,0) tid=(31,0,0)
83500000 instructions simulated : ctaid=(56,0,0) tid=(223,0,0)
83600000 instructions simulated : ctaid=(42,0,0) tid=(31,0,0)
83700000 instructions simulated : ctaid=(44,0,0) tid=(159,0,0)
83800000 instructions simulated : ctaid=(21,0,0) tid=(63,0,0)
83900000 instructions simulated : ctaid=(33,0,0) tid=(255,0,0)
84000000 instructions simulated : ctaid=(23,0,0) tid=(223,0,0)
84100000 instructions simulated : ctaid=(2,0,0) tid=(127,0,0)
84200000 instructions simulated : ctaid=(22,0,0) tid=(31,0,0)
84300000 instructions simulated : ctaid=(47,0,0) tid=(159,0,0)
84400000 instructions simulated : ctaid=(62,0,0) tid=(159,0,0)
84500000 instructions simulated : ctaid=(51,0,0) tid=(223,0,0)
84600000 instructions simulated : ctaid=(55,0,0) tid=(31,0,0)
84700000 instructions simulated : ctaid=(11,0,0) tid=(255,0,0)
84800000 instructions simulated : ctaid=(32,0,0) tid=(95,0,0)
84900000 instructions simulated : ctaid=(46,0,0) tid=(191,0,0)
85000000 instructions simulated : ctaid=(16,0,0) tid=(63,0,0)
85100000 instructions simulated : ctaid=(25,0,0) tid=(255,0,0)
85200000 instructions simulated : ctaid=(39,0,0) tid=(255,0,0)
85300000 instructions simulated : ctaid=(38,0,0) tid=(255,0,0)
85400000 instructions simulated : ctaid=(44,0,0) tid=(255,0,0)
85500000 instructions simulated : ctaid=(50,0,0) tid=(159,0,0)
85600000 instructions simulated : ctaid=(27,0,0) tid=(191,0,0)
85700000 instructions simulated : ctaid=(20,0,0) tid=(255,0,0)
85800000 instructions simulated : ctaid=(17,0,0) tid=(255,0,0)
85900000 instructions simulated : ctaid=(8,0,0) tid=(63,0,0)
86000000 instructions simulated : ctaid=(26,0,0) tid=(159,0,0)
86100000 instructions simulated : ctaid=(15,0,0) tid=(95,0,0)
cycles: 110000  inst.: 86098656 (ipc=782.7) sim_rate=10696 (inst/sec) elapsed = 0:2:14:09 / Tue May 24 15:35:23 2011
86200000 instructions simulated : ctaid=(17,0,0) tid=(31,0,0)
86300000 instructions simulated : ctaid=(10,0,0) tid=(63,0,0)
86400000 instructions simulated : ctaid=(24,0,0) tid=(159,0,0)
86500000 instructions simulated : ctaid=(47,0,0) tid=(63,0,0)
86600000 instructions simulated : ctaid=(40,0,0) tid=(159,0,0)
86700000 instructions simulated : ctaid=(47,0,0) tid=(223,0,0)
86800000 instructions simulated : ctaid=(63,0,0) tid=(127,0,0)
86900000 instructions simulated : ctaid=(24,0,0) tid=(95,0,0)
87000000 instructions simulated : ctaid=(36,0,0) tid=(223,0,0)
87100000 instructions simulated : ctaid=(40,0,0) tid=(191,0,0)
87200000 instructions simulated : ctaid=(49,0,0) tid=(191,0,0)
87300000 instructions simulated : ctaid=(35,0,0) tid=(255,0,0)
87400000 instructions simulated : ctaid=(46,0,0) tid=(223,0,0)
87500000 instructions simulated : ctaid=(35,0,0) tid=(223,0,0)
87600000 instructions simulated : ctaid=(29,0,0) tid=(223,0,0)
87700000 instructions simulated : ctaid=(50,0,0) tid=(127,0,0)
87800000 instructions simulated : ctaid=(46,0,0) tid=(223,0,0)
87900000 instructions simulated : ctaid=(10,0,0) tid=(95,0,0)
88000000 instructions simulated : ctaid=(42,0,0) tid=(191,0,0)
88100000 instructions simulated : ctaid=(25,0,0) tid=(127,0,0)
88200000 instructions simulated : ctaid=(24,0,0) tid=(127,0,0)
88300000 instructions simulated : ctaid=(7,0,0) tid=(127,0,0)
88400000 instructions simulated : ctaid=(36,0,0) tid=(63,0,0)
88500000 instructions simulated : ctaid=(26,0,0) tid=(159,0,0)
88600000 instructions simulated : ctaid=(41,0,0) tid=(191,0,0)
88700000 instructions simulated : ctaid=(34,0,0) tid=(159,0,0)
88800000 instructions simulated : ctaid=(31,0,0) tid=(63,0,0)
88900000 instructions simulated : ctaid=(62,0,0) tid=(255,0,0)
89000000 instructions simulated : ctaid=(11,0,0) tid=(95,0,0)
89100000 instructions simulated : ctaid=(39,0,0) tid=(31,0,0)
89200000 instructions simulated : ctaid=(37,0,0) tid=(191,0,0)
89300000 instructions simulated : ctaid=(47,0,0) tid=(95,0,0)
89400000 instructions simulated : ctaid=(22,0,0) tid=(31,0,0)
89500000 instructions simulated : ctaid=(55,0,0) tid=(95,0,0)
89600000 instructions simulated : ctaid=(12,0,0) tid=(191,0,0)
89700000 instructions simulated : ctaid=(51,0,0) tid=(63,0,0)
89800000 instructions simulated : ctaid=(59,0,0) tid=(191,0,0)
89900000 instructions simulated : ctaid=(5,0,0) tid=(31,0,0)
90000000 instructions simulated : ctaid=(42,0,0) tid=(31,0,0)
90100000 instructions simulated : ctaid=(26,0,0) tid=(63,0,0)
90200000 instructions simulated : ctaid=(2,0,0) tid=(63,0,0)
90300000 instructions simulated : ctaid=(46,0,0) tid=(223,0,0)
90400000 instructions simulated : ctaid=(18,0,0) tid=(223,0,0)
90500000 instructions simulated : ctaid=(30,0,0) tid=(63,0,0)
90600000 instructions simulated : ctaid=(4,0,0) tid=(255,0,0)
90700000 instructions simulated : ctaid=(41,0,0) tid=(159,0,0)
90800000 instructions simulated : ctaid=(28,0,0) tid=(223,0,0)
90900000 instructions simulated : ctaid=(6,0,0) tid=(95,0,0)
91000000 instructions simulated : ctaid=(40,0,0) tid=(95,0,0)
91100000 instructions simulated : ctaid=(13,0,0) tid=(127,0,0)
91200000 instructions simulated : ctaid=(12,0,0) tid=(223,0,0)
91300000 instructions simulated : ctaid=(13,0,0) tid=(127,0,0)
91400000 instructions simulated : ctaid=(11,0,0) tid=(31,0,0)
91500000 instructions simulated : ctaid=(52,0,0) tid=(127,0,0)
91600000 instructions simulated : ctaid=(51,0,0) tid=(127,0,0)
91700000 instructions simulated : ctaid=(13,0,0) tid=(127,0,0)
91800000 instructions simulated : ctaid=(26,0,0) tid=(95,0,0)
91900000 instructions simulated : ctaid=(51,0,0) tid=(223,0,0)
92000000 instructions simulated : ctaid=(49,0,0) tid=(223,0,0)
92100000 instructions simulated : ctaid=(23,0,0) tid=(95,0,0)
92200000 instructions simulated : ctaid=(47,0,0) tid=(63,0,0)
[...]
163000000 instructions simulated : ctaid=(9,0,0) tid=(159,0,0)
cycles: 210000  inst.: 163032032 (ipc=776.3) sim_rate=10725 (inst/sec) elapsed = 0:4:13:20 / Tue May 24 17:34:34 2011
163100000 instructions simulated : ctaid=(8,0,0) tid=(223,0,0)
163200000 instructions simulated : ctaid=(19,0,0) tid=(95,0,0)
163300000 instructions simulated : ctaid=(14,0,0) tid=(191,0,0)
163400000 instructions simulated : ctaid=(13,0,0) tid=(127,0,0)
163500000 instructions simulated : ctaid=(57,0,0) tid=(255,0,0)
163600000 instructions simulated : ctaid=(32,0,0) tid=(159,0,0)
163700000 instructions simulated : ctaid=(12,0,0) tid=(63,0,0)
163800000 instructions simulated : ctaid=(57,0,0) tid=(223,0,0)
163900000 instructions simulated : ctaid=(28,0,0) tid=(63,0,0)
164000000 instructions simulated : ctaid=(57,0,0) tid=(95,0,0)
164100000 instructions simulated : ctaid=(58,0,0) tid=(223,0,0)
164200000 instructions simulated : ctaid=(8,0,0) tid=(255,0,0)
164300000 instructions simulated : ctaid=(46,0,0) tid=(159,0,0)
164400000 instructions simulated : ctaid=(22,0,0) tid=(159,0,0)
164500000 instructions simulated : ctaid=(43,0,0) tid=(223,0,0)
164600000 instructions simulated : ctaid=(28,0,0) tid=(159,0,0)
164700000 instructions simulated : ctaid=(53,0,0) tid=(127,0,0)
164800000 instructions simulated : ctaid=(9,0,0) tid=(191,0,0)
164900000 instructions simulated : ctaid=(52,0,0) tid=(159,0,0)
165000000 instructions simulated : ctaid=(8,0,0) tid=(159,0,0)
165100000 instructions simulated : ctaid=(30,0,0) tid=(159,0,0)
165200000 instructions simulated : ctaid=(46,0,0) tid=(223,0,0)
165300000 instructions simulated : ctaid=(38,0,0) tid=(95,0,0)
165400000 instructions simulated : ctaid=(36,0,0) tid=(31,0,0)
165500000 instructions simulated : ctaid=(54,0,0) tid=(223,0,0)
165600000 instructions simulated : ctaid=(35,0,0) tid=(255,0,0)
165700000 instructions simulated : ctaid=(29,0,0) tid=(159,0,0)
165800000 instructions simulated : ctaid=(30,0,0) tid=(255,0,0)
165900000 instructions simulated : ctaid=(27,0,0) tid=(255,0,0)
166000000 instructions simulated : ctaid=(47,0,0) tid=(255,0,0)
166100000 instructions simulated : ctaid=(9,0,0) tid=(191,0,0)
166200000 instructions simulated : ctaid=(25,0,0) tid=(223,0,0)
166300000 instructions simulated : ctaid=(39,0,0) tid=(191,0,0)
166400000 instructions simulated : ctaid=(51,0,0) tid=(31,0,0)
166500000 instructions simulated : ctaid=(25,0,0) tid=(255,0,0)
166600000 instructions simulated : ctaid=(51,0,0) tid=(63,0,0)
166700000 instructions simulated : ctaid=(41,0,0) tid=(127,0,0)
166800000 instructions simulated : ctaid=(47,0,0) tid=(191,0,0)
166900000 instructions simulated : ctaid=(14,0,0) tid=(159,0,0)
167000000 instructions simulated : ctaid=(8,0,0) tid=(63,0,0)
167100000 instructions simulated : ctaid=(41,0,0) tid=(223,0,0)
167200000 instructions simulated : ctaid=(2,0,0) tid=(191,0,0)
167300000 instructions simulated : ctaid=(21,0,0) tid=(223,0,0)
167400000 instructions simulated : ctaid=(59,0,0) tid=(255,0,0)
167500000 instructions simulated : ctaid=(24,0,0) tid=(63,0,0)
167600000 instructions simulated : ctaid=(15,0,0) tid=(223,0,0)
167700000 instructions simulated : ctaid=(21,0,0) tid=(223,0,0)
167800000 instructions simulated : ctaid=(1,0,0) tid=(127,0,0)
167900000 instructions simulated : ctaid=(9,0,0) tid=(31,0,0)
168000000 instructions simulated : ctaid=(21,0,0) tid=(255,0,0)
168100000 instructions simulated : ctaid=(16,0,0) tid=(159,0,0)
168200000 instructions simulated : ctaid=(32,0,0) tid=(95,0,0)
168300000 instructions simulated : ctaid=(35,0,0) tid=(63,0,0)
168400000 instructions simulated : ctaid=(20,0,0) tid=(159,0,0)
168500000 instructions simulated : ctaid=(29,0,0) tid=(191,0,0)
168600000 instructions simulated : ctaid=(3,0,0) tid=(159,0,0)
168700000 instructions simulated : ctaid=(21,0,0) tid=(191,0,0)
168800000 instructions simulated : ctaid=(14,0,0) tid=(223,0,0)
168900000 instructions simulated : ctaid=(13,0,0) tid=(95,0,0)
169000000 instructions simulated : ctaid=(50,0,0) tid=(255,0,0)
169100000 instructions simulated : ctaid=(55,0,0) tid=(223,0,0)
169200000 instructions simulated : ctaid=(36,0,0) tid=(127,0,0)
169300000 instructions simulated : ctaid=(8,0,0) tid=(127,0,0)
169400000 instructions simulated : ctaid=(51,0,0) tid=(159,0,0)
169500000 instructions simulated : ctaid=(57,0,0) tid=(191,0,0)
169600000 instructions simulated : ctaid=(52,0,0) tid=(127,0,0)
169700000 instructions simulated : ctaid=(42,0,0) tid=(159,0,0)
169800000 instructions simulated : ctaid=(23,0,0) tid=(159,0,0)
169900000 instructions simulated : ctaid=(52,0,0) tid=(159,0,0)
170000000 instructions simulated : ctaid=(21,0,0) tid=(127,0,0)
170100000 instructions simulated : ctaid=(9,0,0) tid=(191,0,0)
170200000 instructions simulated : ctaid=(55,0,0) tid=(63,0,0)
170300000 instructions simulated : ctaid=(23,0,0) tid=(127,0,0)
170400000 instructions simulated : ctaid=(51,0,0) tid=(31,0,0)
cycles: 220000  inst.: 170455392 (ipc=774.8) sim_rate=10709 (inst/sec) elapsed = 0:4:25:17 / Tue May 24 17:46:31 2011
170500000 instructions simulated : ctaid=(34,0,0) tid=(95,0,0)
170600000 instructions simulated : ctaid=(33,0,0) tid=(255,0,0)
170700000 instructions simulated : ctaid=(19,0,0) tid=(191,0,0)
170800000 instructions simulated : ctaid=(27,0,0) tid=(223,0,0)
170900000 instructions simulated : ctaid=(56,0,0) tid=(159,0,0)
171000000 instructions simulated : ctaid=(31,0,0) tid=(63,0,0)
171100000 instructions simulated : ctaid=(38,0,0) tid=(255,0,0)
171200000 instructions simulated : ctaid=(42,0,0) tid=(95,0,0)
171300000 instructions simulated : ctaid=(4,0,0) tid=(255,0,0)
171400000 instructions simulated : ctaid=(34,0,0) tid=(159,0,0)
171500000 instructions simulated : ctaid=(4,0,0) tid=(63,0,0)
171600000 instructions simulated : ctaid=(18,0,0) tid=(191,0,0)
171700000 instructions simulated : ctaid=(24,0,0) tid=(63,0,0)
171800000 instructions simulated : ctaid=(50,0,0) tid=(159,0,0)
171900000 instructions simulated : ctaid=(36,0,0) tid=(63,0,0)
172000000 instructions simulated : ctaid=(20,0,0) tid=(127,0,0)
172100000 instructions simulated : ctaid=(61,0,0) tid=(63,0,0)
172200000 instructions simulated : ctaid=(16,0,0) tid=(63,0,0)
172300000 instructions simulated : ctaid=(12,0,0) tid=(95,0,0)
172400000 instructions simulated : ctaid=(25,0,0) tid=(95,0,0)
172500000 instructions simulated : ctaid=(3,0,0) tid=(31,0,0)
172600000 instructions simulated : ctaid=(2,0,0) tid=(255,0,0)
172700000 instructions simulated : ctaid=(32,0,0) tid=(255,0,0)
172800000 instructions simulated : ctaid=(30,0,0) tid=(159,0,0)
172900000 instructions simulated : ctaid=(61,0,0) tid=(191,0,0)
173000000 instructions simulated : ctaid=(57,0,0) tid=(255,0,0)
173100000 instructions simulated : ctaid=(20,0,0) tid=(31,0,0)
173200000 instructions simulated : ctaid=(30,0,0) tid=(31,0,0)
173300000 instructions simulated : ctaid=(4,0,0) tid=(255,0,0)
173400000 instructions simulated : ctaid=(13,0,0) tid=(191,0,0)
173500000 instructions simulated : ctaid=(53,0,0) tid=(223,0,0)
173600000 instructions simulated : ctaid=(38,0,0) tid=(31,0,0)
173700000 instructions simulated : ctaid=(24,0,0) tid=(127,0,0)
173800000 instructions simulated : ctaid=(33,0,0) tid=(223,0,0)
173900000 instructions simulated : ctaid=(27,0,0) tid=(223,0,0)
174000000 instructions simulated : ctaid=(58,0,0) tid=(31,0,0)
174100000 instructions simulated : ctaid=(57,0,0) tid=(191,0,0)
174200000 instructions simulated : ctaid=(26,0,0) tid=(127,0,0)
174300000 instructions simulated : ctaid=(55,0,0) tid=(31,0,0)
174400000 instructions simulated : ctaid=(39,0,0) tid=(95,0,0)
174500000 instructions simulated : ctaid=(42,0,0) tid=(31,0,0)
174600000 instructions simulated : ctaid=(9,0,0) tid=(127,0,0)
174700000 instructions simulated : ctaid=(37,0,0) tid=(63,0,0)
174800000 instructions simulated : ctaid=(29,0,0) tid=(31,0,0)
174900000 instructions simulated : ctaid=(27,0,0) tid=(191,0,0)
175000000 instructions simulated : ctaid=(56,0,0) tid=(159,0,0)
175100000 instructions simulated : ctaid=(16,0,0) tid=(255,0,0)
175200000 instructions simulated : ctaid=(23,0,0) tid=(159,0,0)
175300000 instructions simulated : ctaid=(25,0,0) tid=(223,0,0)
175400000 instructions simulated : ctaid=(11,0,0) tid=(31,0,0)
175500000 instructions simulated : ctaid=(21,0,0) tid=(255,0,0)
175600000 instructions simulated : ctaid=(4,0,0) tid=(255,0,0)
175700000 instructions simulated : ctaid=(20,0,0) tid=(127,0,0)
175800000 instructions simulated : ctaid=(33,0,0) tid=(223,0,0)
175900000 instructions simulated : ctaid=(40,0,0) tid=(223,0,0)
176000000 instructions simulated : ctaid=(59,0,0) tid=(31,0,0)
176100000 instructions simulated : ctaid=(37,0,0) tid=(191,0,0)
176200000 instructions simulated : ctaid=(25,0,0) tid=(127,0,0)
176300000 instructions simulated : ctaid=(37,0,0) tid=(159,0,0)
176400000 instructions simulated : ctaid=(9,0,0) tid=(255,0,0)
176500000 instructions simulated : ctaid=(1,0,0) tid=(63,0,0)
176600000 instructions simulated : ctaid=(9,0,0) tid=(255,0,0)
176700000 instructions simulated : ctaid=(48,0,0) tid=(127,0,0)
176800000 instructions simulated : ctaid=(44,0,0) tid=(191,0,0)
176900000 instructions simulated : ctaid=(38,0,0) tid=(31,0,0)
177000000 instructions simulated : ctaid=(55,0,0) tid=(31,0,0)
177100000 instructions simulated : ctaid=(41,0,0) tid=(31,0,0)
177200000 instructions simulated : ctaid=(13,0,0) tid=(63,0,0)
177300000 instructions simulated : ctaid=(62,0,0) tid=(31,0,0)
177400000 instructions simulated : ctaid=(8,0,0) tid=(63,0,0)
177500000 instructions simulated : ctaid=(46,0,0) tid=(95,0,0)
177600000 instructions simulated : ctaid=(18,0,0) tid=(95,0,0)
177700000 instructions simulated : ctaid=(53,0,0) tid=(159,0,0)
cycles: 230000  inst.: 177762688 (ipc=772.9) sim_rate=10647 (inst/sec) elapsed = 0:4:38:16 / Tue May 24 17:59:30 2011
177800000 instructions simulated : ctaid=(20,0,0) tid=(255,0,0)
177900000 instructions simulated : ctaid=(35,0,0) tid=(223,0,0)
178000000 instructions simulated : ctaid=(8,0,0) tid=(159,0,0)
178100000 instructions simulated : ctaid=(38,0,0) tid=(31,0,0)
178200000 instructions simulated : ctaid=(18,0,0) tid=(31,0,0)
178300000 instructions simulated : ctaid=(45,0,0) tid=(255,0,0)
178400000 instructions simulated : ctaid=(53,0,0) tid=(63,0,0)
178500000 instructions simulated : ctaid=(30,0,0) tid=(191,0,0)
178600000 instructions simulated : ctaid=(55,0,0) tid=(223,0,0)
178700000 instructions simulated : ctaid=(16,0,0) tid=(95,0,0)
178800000 instructions simulated : ctaid=(43,0,0) tid=(159,0,0)
178900000 instructions simulated : ctaid=(21,0,0) tid=(127,0,0)
179000000 instructions simulated : ctaid=(59,0,0) tid=(159,0,0)
179100000 instructions simulated : ctaid=(36,0,0) tid=(255,0,0)
179200000 instructions simulated : ctaid=(34,0,0) tid=(31,0,0)
179300000 instructions simulated : ctaid=(12,0,0) tid=(223,0,0)
179400000 instructions simulated : ctaid=(14,0,0) tid=(255,0,0)
179500000 instructions simulated : ctaid=(57,0,0) tid=(223,0,0)
179600000 instructions simulated : ctaid=(57,0,0) tid=(95,0,0)
179700000 instructions simulated : ctaid=(16,0,0) tid=(159,0,0)
179800000 instructions simulated : ctaid=(39,0,0) tid=(191,0,0)
179900000 instructions simulated : ctaid=(10,0,0) tid=(223,0,0)
180000000 instructions simulated : ctaid=(16,0,0) tid=(31,0,0)
180100000 instructions simulated : ctaid=(6,0,0) tid=(223,0,0)
180200000 instructions simulated : ctaid=(51,0,0) tid=(127,0,0)
180300000 instructions simulated : ctaid=(12,0,0) tid=(95,0,0)
180400000 instructions simulated : ctaid=(13,0,0) tid=(31,0,0)
180500000 instructions simulated : ctaid=(1,0,0) tid=(31,0,0)
180600000 instructions simulated : ctaid=(34,0,0) tid=(127,0,0)
180700000 instructions simulated : ctaid=(10,0,0) tid=(95,0,0)
180800000 instructions simulated : ctaid=(36,0,0) tid=(191,0,0)
180900000 instructions simulated : ctaid=(42,0,0) tid=(191,0,0)
181000000 instructions simulated : ctaid=(2,0,0) tid=(191,0,0)
181100000 instructions simulated : ctaid=(44,0,0) tid=(31,0,0)
181200000 instructions simulated : ctaid=(21,0,0) tid=(95,0,0)
181300000 instructions simulated : ctaid=(37,0,0) tid=(95,0,0)
181400000 instructions simulated : ctaid=(49,0,0) tid=(95,0,0)
181500000 instructions simulated : ctaid=(6,0,0) tid=(255,0,0)
181600000 instructions simulated : ctaid=(35,0,0) tid=(63,0,0)
181700000 instructions simulated : ctaid=(56,0,0) tid=(255,0,0)
181800000 instructions simulated : ctaid=(9,0,0) tid=(95,0,0)
181900000 instructions simulated : ctaid=(57,0,0) tid=(63,0,0)
182000000 instructions simulated : ctaid=(23,0,0) tid=(95,0,0)
182100000 instructions simulated : ctaid=(18,0,0) tid=(31,0,0)
182200000 instructions simulated : ctaid=(15,0,0) tid=(31,0,0)
182300000 instructions simulated : ctaid=(62,0,0) tid=(191,0,0)
182400000 instructions simulated : ctaid=(15,0,0) tid=(191,0,0)
182500000 instructions simulated : ctaid=(51,0,0) tid=(159,0,0)
182600000 instructions simulated : ctaid=(13,0,0) tid=(31,0,0)
182700000 instructions simulated : ctaid=(13,0,0) tid=(63,0,0)
182800000 instructions simulated : ctaid=(10,0,0) tid=(63,0,0)
182900000 instructions simulated : ctaid=(7,0,0) tid=(31,0,0)
183000000 instructions simulated : ctaid=(21,0,0) tid=(255,0,0)
183100000 instructions simulated : ctaid=(33,0,0) tid=(159,0,0)
183200000 instructions simulated : ctaid=(41,0,0) tid=(223,0,0)
183300000 instructions simulated : ctaid=(25,0,0) tid=(95,0,0)
183400000 instructions simulated : ctaid=(56,0,0) tid=(223,0,0)
183500000 instructions simulated : ctaid=(5,0,0) tid=(127,0,0)
183600000 instructions simulated : ctaid=(61,0,0) tid=(159,0,0)
183700000 instructions simulated : ctaid=(53,0,0) tid=(63,0,0)
183800000 instructions simulated : ctaid=(41,0,0) tid=(191,0,0)
183900000 instructions simulated : ctaid=(16,0,0) tid=(223,0,0)
184000000 instructions simulated : ctaid=(39,0,0) tid=(191,0,0)
184100000 instructions simulated : ctaid=(61,0,0) tid=(95,0,0)
184200000 instructions simulated : ctaid=(5,0,0) tid=(223,0,0)
184300000 instructions simulated : ctaid=(5,0,0) tid=(63,0,0)
184400000 instructions simulated : ctaid=(7,0,0) tid=(127,0,0)
184500000 instructions simulated : ctaid=(53,0,0) tid=(191,0,0)
184600000 instructions simulated : ctaid=(41,0,0) tid=(223,0,0)
184700000 instructions simulated : ctaid=(35,0,0) tid=(63,0,0)
184800000 instructions simulated : ctaid=(24,0,0) tid=(31,0,0)
184900000 instructions simulated : ctaid=(0,0,0) tid=(223,0,0)
185000000 instructions simulated : ctaid=(48,0,0) tid=(127,0,0)
185100000 instructions simulated : ctaid=(33,0,0) tid=(159,0,0)
cycles: 240000  inst.: 185167680 (ipc=771.5) sim_rate=10583 (inst/sec) elapsed = 0:4:51:36 / Tue May 24 18:12:50 2011
185200000 instructions simulated : ctaid=(8,0,0) tid=(159,0,0)
185300000 instructions simulated : ctaid=(44,0,0) tid=(31,0,0)
185400000 instructions simulated : ctaid=(38,0,0) tid=(255,0,0)
185500000 instructions simulated : ctaid=(63,0,0) tid=(127,0,0)
185600000 instructions simulated : ctaid=(15,0,0) tid=(63,0,0)
185700000 instructions simulated : ctaid=(41,0,0) tid=(63,0,0)
185800000 instructions simulated : ctaid=(54,0,0) tid=(159,0,0)
185900000 instructions simulated : ctaid=(25,0,0) tid=(95,0,0)
186000000 instructions simulated : ctaid=(3,0,0) tid=(255,0,0)
186100000 instructions simulated : ctaid=(61,0,0) tid=(63,0,0)
186200000 instructions simulated : ctaid=(4,0,0) tid=(255,0,0)
186300000 instructions simulated : ctaid=(62,0,0) tid=(223,0,0)
186400000 instructions simulated : ctaid=(50,0,0) tid=(63,0,0)
186500000 instructions simulated : ctaid=(9,0,0) tid=(191,0,0)
186600000 instructions simulated : ctaid=(53,0,0) tid=(159,0,0)
186700000 instructions simulated : ctaid=(10,0,0) tid=(191,0,0)
186800000 instructions simulated : ctaid=(27,0,0) tid=(159,0,0)
186900000 instructions simulated : ctaid=(39,0,0) tid=(63,0,0)
187000000 instructions simulated : ctaid=(6,0,0) tid=(63,0,0)
187100000 instructions simulated : ctaid=(21,0,0) tid=(255,0,0)
187200000 instructions simulated : ctaid=(26,0,0) tid=(31,0,0)
187300000 instructions simulated : ctaid=(52,0,0) tid=(31,0,0)
187400000 instructions simulated : ctaid=(8,0,0) tid=(63,0,0)
187500000 instructions simulated : ctaid=(37,0,0) tid=(255,0,0)
187600000 instructions simulated : ctaid=(35,0,0) tid=(255,0,0)
187700000 instructions simulated : ctaid=(20,0,0) tid=(31,0,0)
187800000 instructions simulated : ctaid=(15,0,0) tid=(63,0,0)
187900000 instructions simulated : ctaid=(49,0,0) tid=(255,0,0)
188000000 instructions simulated : ctaid=(36,0,0) tid=(31,0,0)
188100000 instructions simulated : ctaid=(49,0,0) tid=(63,0,0)
188200000 instructions simulated : ctaid=(5,0,0) tid=(159,0,0)
188300000 instructions simulated : ctaid=(18,0,0) tid=(127,0,0)
188400000 instructions simulated : ctaid=(43,0,0) tid=(95,0,0)
188500000 instructions simulated : ctaid=(7,0,0) tid=(255,0,0)
188600000 instructions simulated : ctaid=(24,0,0) tid=(127,0,0)
188700000 instructions simulated : ctaid=(31,0,0) tid=(223,0,0)
188800000 instructions simulated : ctaid=(46,0,0) tid=(191,0,0)
188900000 instructions simulated : ctaid=(61,0,0) tid=(159,0,0)
189000000 instructions simulated : ctaid=(56,0,0) tid=(159,0,0)
189100000 instructions simulated : ctaid=(50,0,0) tid=(223,0,0)
189200000 instructions simulated : ctaid=(0,0,0) tid=(31,0,0)
189300000 instructions simulated : ctaid=(18,0,0) tid=(63,0,0)
189400000 instructions simulated : ctaid=(19,0,0) tid=(63,0,0)
189500000 instructions simulated : ctaid=(2,0,0) tid=(127,0,0)
189600000 instructions simulated : ctaid=(48,0,0) tid=(127,0,0)
189700000 instructions simulated : ctaid=(61,0,0) tid=(63,0,0)
189800000 instructions simulated : ctaid=(27,0,0) tid=(95,0,0)
189900000 instructions simulated : ctaid=(60,0,0) tid=(159,0,0)
190000000 instructions simulated : ctaid=(12,0,0) tid=(95,0,0)
190100000 instructions simulated : ctaid=(29,0,0) tid=(191,0,0)
190200000 instructions simulated : ctaid=(0,0,0) tid=(127,0,0)
190300000 instructions simulated : ctaid=(20,0,0) tid=(95,0,0)
190400000 instructions simulated : ctaid=(48,0,0) tid=(95,0,0)
190500000 instructions simulated : ctaid=(59,0,0) tid=(127,0,0)
190600000 instructions simulated : ctaid=(18,0,0) tid=(31,0,0)
190700000 instructions simulated : ctaid=(47,0,0) tid=(31,0,0)
190800000 instructions simulated : ctaid=(50,0,0) tid=(63,0,0)
190900000 instructions simulated : ctaid=(48,0,0) tid=(159,0,0)
191000000 instructions simulated : ctaid=(48,0,0) tid=(63,0,0)
191100000 instructions simulated : ctaid=(3,0,0) tid=(95,0,0)
191200000 instructions simulated : ctaid=(23,0,0) tid=(191,0,0)
191300000 instructions simulated : ctaid=(48,0,0) tid=(159,0,0)
191400000 instructions simulated : ctaid=(0,0,0) tid=(95,0,0)
191500000 instructions simulated : ctaid=(41,0,0) tid=(127,0,0)
191600000 instructions simulated : ctaid=(37,0,0) tid=(255,0,0)
191700000 instructions simulated : ctaid=(26,0,0) tid=(255,0,0)
191800000 instructions simulated : ctaid=(2,0,0) tid=(223,0,0)
191900000 instructions simulated : ctaid=(42,0,0) tid=(159,0,0)
192000000 instructions simulated : ctaid=(33,0,0) tid=(191,0,0)
192100000 instructions simulated : ctaid=(19,0,0) tid=(159,0,0)
192200000 instructions simulated : ctaid=(21,0,0) tid=(63,0,0)
192300000 instructions simulated : ctaid=(63,0,0) tid=(31,0,0)
cycles: 250000  inst.: 192313184 (ipc=769.3) sim_rate=10568 (inst/sec) elapsed = 0:5:03:16 / Tue May 24 18:24:30 2011
192400000 instructions simulated : ctaid=(13,0,0) tid=(159,0,0)
192500000 instructions simulated : ctaid=(54,0,0) tid=(31,0,0)
192600000 instructions simulated : ctaid=(18,0,0) tid=(127,0,0)
192700000 instructions simulated : ctaid=(40,0,0) tid=(63,0,0)
192800000 instructions simulated : ctaid=(51,0,0) tid=(63,0,0)
192900000 instructions simulated : ctaid=(49,0,0) tid=(223,0,0)
193000000 instructions simulated : ctaid=(45,0,0) tid=(191,0,0)
193100000 instructions simulated : ctaid=(21,0,0) tid=(159,0,0)
193200000 instructions simulated : ctaid=(55,0,0) tid=(159,0,0)
193300000 instructions simulated : ctaid=(54,0,0) tid=(255,0,0)
193400000 instructions simulated : ctaid=(5,0,0) tid=(223,0,0)
